<?xml version="1.0" encoding="UTF-8"?>

<!-- generated on 2024-02-29 13:57:21 by Eclipse SUMO netconvert Version 1.19.0
<configuration xmlns:xsi="http://www.w3.org/2001/XMLSchema-instance" xsi:noNamespaceSchemaLocation="http://sumo.dlr.de/xsd/netconvertConfiguration.xsd">

    <input>
        <type-files value="${SUMO_HOME}/data/typemap/osmNetconvert.typ.xml"/>
        <osm-files value="osm_bbox.osm.xml.gz"/>
    </input>

    <output>
        <output-file value="osm.net.xml.gz"/>
        <output.street-names value="true"/>
        <output.original-names value="true"/>
    </output>

    <projection>
        <proj.utm value="true"/>
    </projection>

    <processing>
        <geometry.remove value="true"/>
        <roundabouts.guess value="true"/>
    </processing>

    <tls_building>
        <tls.discard-simple value="true"/>
        <tls.join value="true"/>
        <tls.guess-signals value="true"/>
        <tls.default-type value="actuated"/>
    </tls_building>

    <ramp_guessing>
        <ramps.guess value="true"/>
    </ramp_guessing>

    <junctions>
        <junctions.join value="true"/>
        <junctions.corner-detail value="5"/>
    </junctions>

</configuration>
-->

<net version="1.16" junctionCornerDetail="5" limitTurnSpeed="5.50" xmlns:xsi="http://www.w3.org/2001/XMLSchema-instance" xsi:noNamespaceSchemaLocation="http://sumo.dlr.de/xsd/net_file.xsd">

    <location netOffset="-528342.23,-4497223.90" convBoundary="0.00,0.00,768.24,1555.35" origBoundary="-8.685313,40.625346,-8.655753,40.639357" projParameter="+proj=utm +zone=29 +ellps=WGS84 +datum=WGS84 +units=m +no_defs"/>

    <type id="highway.cycleway" priority="1" numLanes="1" speed="5.56" allow="bicycle" oneway="0" width="2.00"/>
    <type id="highway.footway" priority="1" numLanes="1" speed="2.78" allow="pedestrian" oneway="1" width="2.00"/>
    <type id="highway.path" priority="1" numLanes="1" speed="5.56" allow="pedestrian bicycle" oneway="0" width="2.00"/>
    <type id="highway.residential" priority="3" numLanes="1" speed="13.89" disallow="tram rail_urban rail rail_electric rail_fast ship" oneway="0"/>
    <type id="highway.secondary" priority="11" numLanes="1" speed="27.78" disallow="tram rail_urban rail rail_electric rail_fast ship" oneway="0"/>
    <type id="highway.service" priority="1" numLanes="1" speed="5.56" allow="pedestrian delivery bicycle" oneway="0"/>
    <type id="highway.steps" priority="1" numLanes="1" speed="1.39" allow="pedestrian" oneway="1" width="2.00"/>
    <type id="highway.track" priority="1" numLanes="1" speed="5.56" allow="pedestrian motorcycle moped bicycle" oneway="0"/>
    <type id="highway.unclassified" priority="4" numLanes="1" speed="13.89" disallow="tram rail_urban rail rail_electric rail_fast ship" oneway="0"/>

    <edge id=":10002075832_0" function="internal">
        <lane id=":10002075832_0_0" index="0" allow="bicycle" speed="2.89" length="2.92" width="2.00" shape="452.22,1555.08 451.94,1555.94 451.53,1556.31 450.98,1556.21 450.29,1555.62"/>
    </edge>
    <edge id=":10002075834_0" function="internal">
        <lane id=":10002075834_0_0" index="0" disallow="tram rail_urban rail rail_electric rail_fast ship" speed="20.84" length="6.57" shape="522.43,1387.19 522.86,1385.32 522.88,1383.99 522.70,1382.64 522.51,1380.69"/>
    </edge>
    <edge id=":10002075834_1" function="internal">
        <lane id=":10002075834_1_0" index="0" disallow="tram rail_urban rail rail_electric rail_fast ship" speed="7.42" length="6.41" shape="522.43,1387.19 523.09,1385.54 523.99,1384.23 525.13,1383.24 526.51,1382.57"/>
    </edge>
    <edge id=":10002075838_0" function="internal">
        <lane id=":10002075838_0_0" index="0" disallow="tram rail_urban rail rail_electric rail_fast ship" speed="8.91" length="5.57" shape="528.19,1378.35 529.03,1379.79 529.60,1380.87 530.36,1381.68 531.79,1382.33"/>
    </edge>
    <edge id=":10002075838_1" function="internal">
        <lane id=":10002075838_1_0" index="0" disallow="tram rail_urban rail rail_electric rail_fast ship" speed="9.15" length="5.24" shape="526.70,1382.51 528.18,1382.04 529.24,1381.83 530.31,1381.92 531.79,1382.33"/>
    </edge>
    <edge id=":10002075839_0" function="internal">
        <lane id=":10002075839_0_0" index="0" disallow="tram rail_urban rail rail_electric rail_fast ship" speed="14.89" length="6.13" shape="531.98,1382.39 533.71,1382.77 534.95,1382.71 536.21,1382.41 538.01,1382.10"/>
    </edge>
    <edge id=":10002075839_1" function="internal">
        <lane id=":10002075839_1_0" index="0" disallow="tram rail_urban rail rail_electric rail_fast ship" speed="7.22" length="5.90" shape="531.98,1382.39 533.54,1383.02 534.78,1383.85 535.69,1384.87 536.30,1386.08"/>
    </edge>
    <edge id=":10002075840_0" function="internal">
        <lane id=":10002075840_0_0" index="0" disallow="tram rail_urban rail rail_electric rail_fast ship" speed="10.01" length="4.50" shape="539.61,1388.21 538.56,1389.04 537.80,1389.62 537.21,1390.31 536.70,1391.49"/>
    </edge>
    <edge id=":10002075840_1" function="internal">
        <lane id=":10002075840_1_0" index="0" disallow="tram rail_urban rail rail_electric rail_fast ship" speed="9.03" length="5.40" shape="536.36,1386.27 536.88,1387.79 537.15,1388.88 537.11,1389.98 536.70,1391.49"/>
    </edge>
    <edge id=":10002075841_0" function="internal">
        <lane id=":10002075841_0_0" index="0" disallow="tram rail_urban rail rail_electric rail_fast ship" speed="8.02" length="5.52" shape="536.63,1391.68 536.34,1393.20 536.58,1394.27 537.20,1395.32 538.01,1396.76"/>
    </edge>
    <edge id=":10002075841_1" function="internal">
        <lane id=":10002075841_1_0" index="0" disallow="tram rail_urban rail rail_electric rail_fast ship" speed="8.06" length="4.77" shape="536.63,1391.68 536.18,1393.02 535.75,1393.92 535.09,1394.64 533.95,1395.43"/>
    </edge>
    <edge id=":10002075844_0" function="internal">
        <lane id=":10002075844_0_0" index="0" disallow="tram rail_urban rail rail_electric rail_fast ship" speed="13.96" length="6.21" shape="534.03,1399.66 532.53,1398.57 531.51,1397.75 530.40,1397.18 528.64,1396.79"/>
    </edge>
    <edge id=":10002075844_1" function="internal">
        <lane id=":10002075844_1_0" index="0" disallow="tram rail_urban rail rail_electric rail_fast ship" speed="8.68" length="5.47" shape="533.78,1395.53 532.39,1396.36 531.35,1396.81 530.23,1396.94 528.64,1396.79"/>
    </edge>
    <edge id=":10002075845_0" function="internal">
        <lane id=":10002075845_0_0" index="0" disallow="tram rail_urban rail rail_electric rail_fast ship" speed="15.21" length="6.29" shape="528.44,1396.77 526.62,1396.67 525.38,1396.92 524.15,1397.41 522.38,1398.02"/>
    </edge>
    <edge id=":10002075845_1" function="internal">
        <lane id=":10002075845_1_0" index="0" disallow="tram rail_urban rail rail_electric rail_fast ship" speed="6.95" length="6.17" shape="528.44,1396.77 526.59,1396.38 525.12,1395.76 524.03,1394.90 523.33,1393.82"/>
    </edge>
    <edge id=":10002075852_0" function="internal">
        <lane id=":10002075852_0_0" index="0" disallow="tram rail_urban rail rail_electric rail_fast ship" speed="9.35" length="6.55" shape="523.25,1393.64 522.46,1391.86 522.00,1390.55 521.95,1389.23 522.37,1387.38"/>
    </edge>
    <edge id=":10002075852_1" function="internal">
        <lane id=":10002075852_1_0" index="0" disallow="tram rail_urban rail rail_electric rail_fast ship" speed="27.78" length="6.73" shape="518.97,1393.12 520.14,1391.50 521.00,1390.41 521.70,1389.24 522.37,1387.38"/>
    </edge>
    <edge id=":10002075853_0" function="internal">
        <lane id=":10002075853_0_0" index="0" disallow="tram rail_urban rail rail_electric rail_fast ship" speed="27.78" length="5.56" shape="521.33,1398.33 519.77,1398.84 518.75,1399.33 517.80,1399.95 516.41,1400.86"/>
    </edge>
    <edge id=":10002075853_1" function="internal">
        <lane id=":10002075853_1_0" index="0" disallow="tram rail_urban rail rail_electric rail_fast ship" speed="4.99" length="3.61" shape="521.33,1398.33 518.37,1398.94 517.79,1398.84"/>
    </edge>
    <edge id=":10002075853_4" function="internal">
        <lane id=":10002075853_4_0" index="0" disallow="tram rail_urban rail rail_electric rail_fast ship" speed="4.99" length="4.50" shape="517.79,1398.84 516.72,1398.67 516.39,1397.54 517.36,1395.53"/>
    </edge>
    <edge id=":10002075853_2" function="internal">
        <lane id=":10002075853_2_0" index="0" disallow="tram rail_urban rail rail_electric rail_fast ship" speed="11.59" length="3.77" shape="514.71,1398.15 515.64,1397.54 516.24,1397.05 516.73,1396.45 517.36,1395.53"/>
    </edge>
    <edge id=":10002075853_3" function="internal">
        <lane id=":10002075853_3_0" index="0" disallow="tram rail_urban rail rail_electric rail_fast ship" speed="3.65" length="1.44" shape="514.71,1398.15 516.15,1398.19"/>
    </edge>
    <edge id=":10002075853_5" function="internal">
        <lane id=":10002075853_5_0" index="0" disallow="tram rail_urban rail rail_electric rail_fast ship" speed="3.65" length="3.23" shape="516.15,1398.19 516.92,1398.65 517.00,1399.54 516.41,1400.86"/>
    </edge>
    <edge id=":10002075854_0" function="internal">
        <lane id=":10002075854_0_0" index="0" disallow="tram rail_urban rail rail_electric rail_fast ship" speed="20.83" length="9.15" shape="547.40,1383.09 545.06,1384.48 543.42,1385.37 541.85,1386.36 539.76,1388.07"/>
    </edge>
    <edge id=":10002075854_1" function="internal">
        <lane id=":10002075854_1_0" index="0" disallow="tram rail_urban rail rail_electric rail_fast ship" speed="3.65" length="1.44" shape="547.40,1383.09 545.96,1383.06"/>
    </edge>
    <edge id=":10002075854_4" function="internal">
        <lane id=":10002075854_4_0" index="0" disallow="tram rail_urban rail rail_electric rail_fast ship" speed="3.65" length="3.23" shape="545.96,1383.06 545.19,1382.61 545.09,1381.72 545.67,1380.40"/>
    </edge>
    <edge id=":10002075854_2" function="internal">
        <lane id=":10002075854_2_0" index="0" disallow="tram rail_urban rail rail_electric rail_fast ship" speed="11.70" length="4.75" shape="541.19,1381.74 542.59,1381.60 543.56,1381.44 544.46,1381.10 545.67,1380.40"/>
    </edge>
    <edge id=":10002075854_3" function="internal">
        <lane id=":10002075854_3_0" index="0" disallow="tram rail_urban rail rail_electric rail_fast ship" speed="5.43" length="3.57" shape="541.19,1381.74 543.53,1381.86 544.08,1382.95"/>
    </edge>
    <edge id=":10002075854_5" function="internal">
        <lane id=":10002075854_5_0" index="0" disallow="tram rail_urban rail rail_electric rail_fast ship" speed="5.43" length="6.74" shape="544.08,1382.95 542.82,1385.03 539.76,1388.07"/>
    </edge>
    <edge id=":10002075855_0" function="internal">
        <lane id=":10002075855_0_0" index="0" disallow="tram rail_urban rail rail_electric rail_fast ship" speed="13.89" length="3.98" shape="522.30,1376.34 522.24,1375.16 522.16,1374.35 521.95,1373.57 521.54,1372.47"/>
    </edge>
    <edge id=":10002075855_1" function="internal">
        <lane id=":10002075855_1_0" index="0" disallow="tram rail_urban rail rail_electric rail_fast ship" speed="5.12" length="3.07" shape="522.30,1376.34 522.46,1373.67 522.74,1373.39"/>
    </edge>
    <edge id=":10002075855_4" function="internal">
        <lane id=":10002075855_4_0" index="0" disallow="tram rail_urban rail rail_electric rail_fast ship" speed="5.12" length="6.19" shape="522.74,1373.39 523.31,1372.82 524.83,1373.81 527.02,1376.62"/>
    </edge>
    <edge id=":10002075855_2" function="internal">
        <lane id=":10002075855_2_0" index="0" disallow="tram rail_urban rail rail_electric rail_fast ship" speed="13.89" length="5.92" shape="524.52,1371.29 525.13,1372.94 525.56,1374.07 526.08,1375.15 527.02,1376.62"/>
    </edge>
    <edge id=":10002075855_3" function="internal">
        <lane id=":10002075855_3_0" index="0" disallow="tram rail_urban rail rail_electric rail_fast ship" speed="3.65" length="1.44" shape="524.52,1371.29 524.21,1372.70"/>
    </edge>
    <edge id=":10002075855_5" function="internal">
        <lane id=":10002075855_5_0" index="0" disallow="tram rail_urban rail rail_electric rail_fast ship" speed="3.65" length="3.23" shape="524.21,1372.70 523.62,1373.37 522.73,1373.29 521.54,1372.47"/>
    </edge>
    <edge id=":10002075857_0" function="internal">
        <lane id=":10002075857_0_0" index="0" disallow="tram rail_urban rail rail_electric rail_fast ship" speed="13.89" length="6.02" shape="539.83,1405.18 538.55,1403.95 537.85,1402.91 537.14,1401.90 535.78,1400.79"/>
    </edge>
    <edge id=":10002075857_1" function="internal">
        <lane id=":10002075857_1_0" index="0" disallow="tram rail_urban rail rail_electric rail_fast ship" speed="3.65" length="1.44" shape="539.83,1405.18 539.36,1403.81"/>
    </edge>
    <edge id=":10002075857_4" function="internal">
        <lane id=":10002075857_4_0" index="0" disallow="tram rail_urban rail rail_electric rail_fast ship" speed="3.65" length="3.23" shape="539.36,1403.81 539.53,1402.94 540.33,1402.54 541.77,1402.64"/>
    </edge>
    <edge id=":10002075857_2" function="internal">
        <lane id=":10002075857_2_0" index="0" disallow="tram rail_urban rail rail_electric rail_fast ship" speed="12.17" length="5.48" shape="538.70,1398.21 539.37,1399.70 539.87,1400.72 540.55,1401.60 541.77,1402.64"/>
    </edge>
    <edge id=":10002075857_3" function="internal">
        <lane id=":10002075857_3_0" index="0" disallow="tram rail_urban rail rail_electric rail_fast ship" speed="4.86" length="2.95" shape="538.70,1398.21 539.68,1400.79 539.66,1400.98"/>
    </edge>
    <edge id=":10002075857_5" function="internal">
        <lane id=":10002075857_5_0" index="0" disallow="tram rail_urban rail rail_electric rail_fast ship" speed="4.86" length="5.17" shape="539.66,1400.98 539.52,1402.08 538.22,1402.08 535.78,1400.79"/>
    </edge>
    <edge id=":10981112633_0" function="internal">
        <lane id=":10981112633_0_0" index="0" allow="pedestrian delivery bicycle" speed="3.65" length="4.67" shape="477.92,954.32 479.34,954.11 480.17,954.44 480.41,955.30 480.06,956.70"/>
    </edge>
    <edge id=":10981112666_0" function="internal">
        <lane id=":10981112666_0_0" index="0" allow="pedestrian delivery bicycle" speed="5.56" length="5.00" shape="510.95,1061.38 507.37,1057.89"/>
    </edge>
    <edge id=":10981112666_1" function="internal">
        <lane id=":10981112666_1_0" index="0" allow="pedestrian delivery bicycle" speed="3.65" length="1.44" shape="510.95,1061.38 510.65,1059.97"/>
    </edge>
    <edge id=":10981112666_4" function="internal">
        <lane id=":10981112666_4_0" index="0" allow="pedestrian delivery bicycle" speed="3.65" length="3.23" shape="510.65,1059.97 510.92,1059.12 511.77,1058.83 513.18,1059.09"/>
    </edge>
    <edge id=":10981112666_2" function="internal">
        <lane id=":10981112666_2_0" index="0" allow="pedestrian delivery bicycle" speed="5.56" length="5.00" shape="509.61,1055.60 513.18,1059.09"/>
    </edge>
    <edge id=":10981112666_3" function="internal">
        <lane id=":10981112666_3_0" index="0" allow="pedestrian delivery bicycle" speed="3.65" length="1.44" shape="509.61,1055.60 509.91,1057.01"/>
    </edge>
    <edge id=":10981112666_5" function="internal">
        <lane id=":10981112666_5_0" index="0" allow="pedestrian delivery bicycle" speed="3.65" length="3.23" shape="509.91,1057.01 509.63,1057.86 508.79,1058.15 507.37,1057.89"/>
    </edge>
    <edge id=":10981112997_0" function="internal">
        <lane id=":10981112997_0_0" index="0" allow="pedestrian delivery bicycle" speed="5.56" length="9.40" shape="418.72,1015.67 411.94,1022.19"/>
    </edge>
    <edge id=":10981112997_1" function="internal">
        <lane id=":10981112997_1_0" index="0" allow="pedestrian delivery bicycle" speed="5.56" length="10.17" shape="418.72,1015.67 416.49,1017.27 414.25,1017.77 412.01,1017.18 409.76,1015.50"/>
    </edge>
    <edge id=":10981112997_2" function="internal">
        <lane id=":10981112997_2_0" index="0" allow="pedestrian delivery bicycle" speed="3.65" length="4.67" shape="418.72,1015.67 417.30,1015.92 416.46,1015.62 416.19,1014.77 416.50,1013.36"/>
    </edge>
    <edge id=":10981112997_3" function="internal">
        <lane id=":10981112997_3_0" index="0" allow="pedestrian delivery bicycle" speed="5.12" length="5.09" shape="412.01,1013.23 413.15,1014.08 414.27,1014.39 415.39,1014.15 416.50,1013.36"/>
    </edge>
    <edge id=":10981112997_4" function="internal">
        <lane id=":10981112997_4_0" index="0" allow="pedestrian delivery bicycle" speed="5.56" length="10.27" shape="412.01,1013.23 413.71,1015.48 414.27,1017.72 413.68,1019.96 411.94,1022.19"/>
    </edge>
    <edge id=":10981112997_5" function="internal">
        <lane id=":10981112997_5_0" index="0" allow="pedestrian delivery bicycle" speed="3.65" length="4.67" shape="412.01,1013.23 412.30,1014.64 412.02,1015.49 411.17,1015.77 409.76,1015.50"/>
    </edge>
    <edge id=":10981112997_6" function="internal">
        <lane id=":10981112997_6_0" index="0" allow="pedestrian delivery bicycle" speed="5.02" length="5.03" shape="409.73,1019.88 410.57,1018.79 410.86,1017.70 410.59,1016.60 409.76,1015.50"/>
    </edge>
    <edge id=":10981112997_7" function="internal">
        <lane id=":10981112997_7_0" index="0" allow="pedestrian delivery bicycle" speed="5.56" length="9.40" shape="409.73,1019.88 416.50,1013.36"/>
    </edge>
    <edge id=":10981112997_8" function="internal">
        <lane id=":10981112997_8_0" index="0" allow="pedestrian delivery bicycle" speed="3.65" length="4.67" shape="409.73,1019.88 411.14,1019.63 411.99,1019.93 412.25,1020.78 411.94,1022.19"/>
    </edge>
    <edge id=":10981112999_0" function="internal">
        <lane id=":10981112999_0_0" index="0" allow="pedestrian delivery bicycle" speed="3.65" length="4.67" shape="402.60,999.10 404.01,998.79 404.86,999.06 405.16,999.90 404.90,1001.32"/>
    </edge>
    <edge id=":10981113175_0" function="internal">
        <lane id=":10981113175_0_0" index="0" allow="pedestrian delivery bicycle" speed="5.56" length="0.67" shape="439.08,3.72 438.92,3.84 438.82,3.94 438.74,4.05 438.65,4.22"/>
    </edge>
    <edge id=":10981113175_1" function="internal">
        <lane id=":10981113175_1_0" index="0" allow="pedestrian delivery bicycle" speed="5.56" length="2.01" shape="435.85,2.68 436.14,2.16 436.38,1.82 436.68,1.54 437.15,1.17"/>
    </edge>
    <edge id=":10981113186_0" function="internal">
        <lane id=":10981113186_0_0" index="0" allow="pedestrian delivery bicycle" speed="5.56" length="11.38" shape="451.62,28.20 444.41,37.00"/>
    </edge>
    <edge id=":10981113186_1" function="internal">
        <lane id=":10981113186_1_0" index="0" allow="pedestrian delivery bicycle" speed="5.56" length="13.35" shape="451.62,28.20 449.55,29.67 446.90,29.76 443.66,28.47 439.85,25.79"/>
    </edge>
    <edge id=":10981113186_2" function="internal">
        <lane id=":10981113186_2_0" index="0" allow="pedestrian delivery bicycle" speed="3.65" length="4.67" shape="451.62,28.20 450.24,28.62 449.37,28.42 449.00,27.60 449.15,26.17"/>
    </edge>
    <edge id=":10981113186_3" function="internal">
        <lane id=":10981113186_3_0" index="0" allow="pedestrian delivery bicycle" speed="5.29" length="5.61" shape="444.20,25.22 445.79,26.33 447.15,26.86 448.26,26.81 449.15,26.17"/>
    </edge>
    <edge id=":10981113186_4" function="internal">
        <lane id=":10981113186_4_0" index="0" allow="pedestrian delivery bicycle" speed="5.56" length="13.40" shape="444.20,25.22 446.42,27.77 447.20,30.59 446.52,33.66 444.41,37.00"/>
    </edge>
    <edge id=":10981113186_5" function="internal">
        <lane id=":10981113186_5_0" index="0" allow="pedestrian delivery bicycle" speed="4.08" length="6.41" shape="444.20,25.22 443.32,27.00 442.30,27.68 441.15,27.28 439.85,25.79"/>
    </edge>
    <edge id=":10981113186_6" function="internal">
        <lane id=":10981113186_6_0" index="0" allow="pedestrian delivery bicycle" speed="5.56" length="10.68" shape="441.93,34.97 443.17,32.72 443.24,30.44 442.13,28.13 439.85,25.79"/>
    </edge>
    <edge id=":10981113186_7" function="internal">
        <lane id=":10981113186_7_0" index="0" allow="pedestrian delivery bicycle" speed="5.56" length="11.38" shape="441.93,34.97 449.15,26.17"/>
    </edge>
    <edge id=":10981113186_8" function="internal">
        <lane id=":10981113186_8_0" index="0" allow="pedestrian delivery bicycle" speed="3.65" length="4.67" shape="441.93,34.97 443.31,34.55 444.18,34.75 444.55,35.56 444.41,37.00"/>
    </edge>
    <edge id=":11025314458_0" function="internal">
        <lane id=":11025314458_0_0" index="0" allow="pedestrian motorcycle moped bicycle" speed="3.65" length="4.67" shape="297.11,1318.36 295.78,1317.82 295.23,1317.11 295.46,1316.25 296.48,1315.23"/>
    </edge>
    <edge id=":11354899403_0" function="internal">
        <lane id=":11354899403_0_0" index="0" disallow="tram rail_urban rail rail_electric rail_fast ship" speed="3.65" length="4.67" shape="570.79,754.82 572.21,754.56 573.06,754.85 573.33,755.70 573.02,757.11"/>
    </edge>
    <edge id=":1443502559_0" function="internal">
        <lane id=":1443502559_0_0" index="0" allow="bicycle" speed="2.89" length="2.92" width="2.00" shape="579.46,734.35 580.35,734.19 580.87,734.38 581.04,734.92 580.84,735.80"/>
    </edge>
    <edge id=":1443502568_0" function="internal">
        <lane id=":1443502568_0_0" index="0" allow="bicycle" speed="5.56" length="5.80" width="2.00" shape="514.92,799.17 510.76,803.22"/>
    </edge>
    <edge id=":1443502568_1" function="internal">
        <lane id=":1443502568_1_0" index="0" allow="bicycle" speed="2.89" length="2.92" width="2.00" shape="514.92,799.17 514.03,799.34 513.50,799.15 513.33,798.62 513.52,797.74"/>
    </edge>
    <edge id=":1443502568_2" function="internal">
        <lane id=":1443502568_2_0" index="0" allow="bicycle" speed="5.56" length="5.80" width="2.00" shape="509.36,801.78 513.52,797.74"/>
    </edge>
    <edge id=":1443502568_3" function="internal">
        <lane id=":1443502568_3_0" index="0" allow="bicycle" speed="2.89" length="2.92" width="2.00" shape="509.36,801.78 510.25,801.62 510.78,801.80 510.94,802.33 510.76,803.22"/>
    </edge>
    <edge id=":1443502568_4" function="internal">
        <lane id=":1443502568_4_0" index="0" allow="bicycle" speed="3.93" length="4.83" width="2.00" shape="513.52,804.39 513.35,802.86 512.84,802.16 511.97,802.27 510.76,803.22"/>
    </edge>
    <edge id=":1443502568_5" function="internal">
        <lane id=":1443502568_5_0" index="0" allow="bicycle" speed="5.56" length="6.70" width="2.00" shape="513.52,804.39 513.42,803.03 513.25,800.95 513.22,798.93 513.52,797.74"/>
    </edge>
    <edge id=":1443502574_0" function="internal">
        <lane id=":1443502574_0_0" index="0" allow="bicycle" speed="3.94" length="5.02" width="2.00" shape="510.22,818.75 510.37,820.37 510.88,821.09 511.74,820.90 512.95,819.81"/>
    </edge>
    <edge id=":1443502574_1" function="internal">
        <lane id=":1443502574_1_0" index="0" allow="bicycle" speed="5.56" length="6.03" width="2.00" shape="510.22,818.75 510.16,824.78"/>
    </edge>
    <edge id=":1443502574_2" function="internal">
        <lane id=":1443502574_2_0" index="0" allow="bicycle" speed="2.89" length="2.92" width="2.00" shape="510.22,818.75 509.71,819.49 509.21,819.74 508.71,819.48 508.22,818.73"/>
    </edge>
    <edge id=":1443502574_3" function="internal">
        <lane id=":1443502574_3_0" index="0" allow="bicycle" speed="5.56" length="6.03" width="2.00" shape="508.16,824.76 508.22,818.73"/>
    </edge>
    <edge id=":1443502574_4" function="internal">
        <lane id=":1443502574_4_0" index="0" allow="bicycle" speed="5.56" length="7.28" width="2.00" shape="508.16,824.76 508.60,822.90 509.70,821.96 511.24,821.18 512.95,819.81"/>
    </edge>
    <edge id=":1443502574_5" function="internal">
        <lane id=":1443502574_5_0" index="0" allow="bicycle" speed="2.89" length="2.92" width="2.00" shape="508.16,824.76 508.66,824.02 509.17,823.77 509.66,824.03 510.16,824.78"/>
    </edge>
    <edge id=":1443502586_0" function="internal">
        <lane id=":1443502586_0_0" index="0" allow="bicycle" speed="3.94" length="4.95" width="2.00" shape="512.24,890.74 511.05,889.67 510.20,889.49 509.68,890.20 509.49,891.79"/>
    </edge>
    <edge id=":1443502586_1" function="internal">
        <lane id=":1443502586_1_0" index="0" allow="bicycle" speed="5.56" length="6.81" width="2.00" shape="512.24,890.74 507.56,885.80"/>
    </edge>
    <edge id=":1443502586_2" function="internal">
        <lane id=":1443502586_2_0" index="0" allow="bicycle" speed="5.56" length="5.96" width="2.00" shape="509.56,885.83 509.49,891.79"/>
    </edge>
    <edge id=":1443502586_3" function="internal">
        <lane id=":1443502586_3_0" index="0" allow="bicycle" speed="2.89" length="2.92" width="2.00" shape="509.56,885.83 509.05,886.57 508.55,886.81 508.05,886.56 507.56,885.80"/>
    </edge>
    <edge id=":1443502586_4" function="internal">
        <lane id=":1443502586_4_0" index="0" allow="bicycle" speed="5.56" length="5.96" width="2.00" shape="507.49,891.76 507.56,885.80"/>
    </edge>
    <edge id=":1443502586_5" function="internal">
        <lane id=":1443502586_5_0" index="0" allow="bicycle" speed="2.89" length="2.92" width="2.00" shape="507.49,891.76 508.00,891.02 508.50,890.77 509.00,891.03 509.49,891.79"/>
    </edge>
    <edge id=":1443502600_0" function="internal">
        <lane id=":1443502600_0_0" index="0" allow="bicycle" speed="5.56" length="5.72" width="2.00" shape="511.74,912.46 507.74,908.37"/>
    </edge>
    <edge id=":1443502600_1" function="internal">
        <lane id=":1443502600_1_0" index="0" allow="bicycle" speed="5.56" length="6.67" width="2.00" shape="511.74,912.46 511.48,911.27 511.57,909.26 511.81,907.21 511.95,905.85"/>
    </edge>
    <edge id=":1443502600_2" function="internal">
        <lane id=":1443502600_2_0" index="0" allow="bicycle" speed="2.89" length="2.92" width="2.00" shape="511.74,912.46 511.58,911.58 511.76,911.05 512.29,910.88 513.17,911.07"/>
    </edge>
    <edge id=":1443502600_3" function="internal">
        <lane id=":1443502600_3_0" index="0" allow="bicycle" speed="2.88" length="2.88" width="2.00" shape="509.30,906.97 511.95,905.85"/>
    </edge>
    <edge id=":1443502600_4" function="internal">
        <lane id=":1443502600_4_0" index="0" allow="bicycle" speed="5.56" length="5.69" width="2.00" shape="509.30,906.97 509.80,907.93 510.97,909.13 512.27,910.27 513.17,911.07"/>
    </edge>
    <edge id=":1443502600_5" function="internal">
        <lane id=":1443502600_5_0" index="0" allow="bicycle" speed="3.28" length="3.06" width="2.00" shape="509.30,906.97 509.43,907.91 509.22,908.45 508.65,908.61 507.74,908.37"/>
    </edge>
    <edge id=":1443502748_0" function="internal">
        <lane id=":1443502748_0_0" index="0" allow="bicycle" speed="2.89" length="2.92" width="2.00" shape="606.67,1004.08 606.88,1004.96 606.73,1005.49 606.20,1005.69 605.31,1005.55"/>
    </edge>
    <edge id=":1590093102_0" function="internal">
        <lane id=":1590093102_0_0" index="0" allow="pedestrian delivery bicycle" speed="3.65" length="4.67" shape="453.36,509.47 454.79,509.23 455.63,509.54 455.88,510.39 455.56,511.80"/>
    </edge>
    <edge id=":1590093113_0" function="internal">
        <lane id=":1590093113_0_0" index="0" allow="pedestrian delivery bicycle" speed="3.65" length="4.67" shape="500.22,559.88 500.50,561.29 500.22,562.14 499.37,562.42 497.95,562.13"/>
    </edge>
    <edge id=":1650972559_0" function="internal">
        <lane id=":1650972559_0_0" index="0" disallow="tram rail_urban rail rail_electric rail_fast ship" speed="13.89" length="0.29" shape="336.38,246.40 336.26,246.13"/>
    </edge>
    <edge id=":1650972559_1" function="internal">
        <lane id=":1650972559_1_0" index="0" disallow="tram rail_urban rail rail_electric rail_fast ship" speed="13.89" length="0.30" shape="339.15,244.76 339.28,245.04"/>
    </edge>
    <edge id=":1699747014_0" function="internal">
        <lane id=":1699747014_0_0" index="0" disallow="tram rail_urban rail rail_electric rail_fast ship" speed="13.89" length="5.19" shape="565.83,1424.32 564.68,1423.30 563.86,1422.63 563.02,1422.00 561.76,1421.10"/>
    </edge>
    <edge id=":1699747014_1" function="internal">
        <lane id=":1699747014_1_0" index="0" disallow="tram rail_urban rail rail_electric rail_fast ship" speed="13.89" length="5.53" shape="563.62,1418.50 564.96,1419.46 565.86,1420.13 566.73,1420.84 567.96,1421.93"/>
    </edge>
    <edge id=":1699747018_0" function="internal">
        <lane id=":1699747018_0_0" index="0" disallow="tram rail_urban rail rail_electric rail_fast ship" speed="3.65" length="4.67" shape="545.08,1449.23 546.50,1448.96 547.35,1449.26 547.62,1450.11 547.32,1451.52"/>
    </edge>
    <edge id=":1834488354_0" function="internal">
        <lane id=":1834488354_0_0" index="0" allow="pedestrian delivery bicycle" speed="3.65" length="4.67" shape="427.63,773.93 428.43,772.73 429.24,772.33 430.03,772.74 430.83,773.94"/>
    </edge>
    <edge id=":1834488369_0" function="internal">
        <lane id=":1834488369_0_0" index="0" allow="pedestrian delivery bicycle" speed="5.56" length="9.06" shape="462.98,972.08 456.46,978.37"/>
    </edge>
    <edge id=":1834488369_1" function="internal">
        <lane id=":1834488369_1_0" index="0" allow="pedestrian delivery bicycle" speed="5.56" length="10.19" shape="462.98,972.08 460.66,973.64 458.40,974.07 456.20,973.39 454.07,971.59"/>
    </edge>
    <edge id=":1834488369_2" function="internal">
        <lane id=":1834488369_2_0" index="0" allow="pedestrian delivery bicycle" speed="3.65" length="4.67" shape="462.98,972.08 461.55,972.29 460.72,971.96 460.48,971.10 460.83,969.70"/>
    </edge>
    <edge id=":1834488369_3" function="internal">