<?xml version="1.0" encoding="UTF-8"?>

<!-- generated on 2024-03-12 14:58:40 by Eclipse SUMO netconvert Version 1.12.0
<configuration xmlns:xsi="http://www.w3.org/2001/XMLSchema-instance" xsi:noNamespaceSchemaLocation="http://sumo.dlr.de/xsd/netconvertConfiguration.xsd">

    <input>
        <osm-files value="/home/pi-digitaltwin/Desktop/ruadapega.osm"/>
    </input>

    <output>
        <output-file value="/home/pi-digitaltwin/Desktop/ruadapega.net.xml"/>
    </output>

    <projection>
        <proj.utm value="true"/>
    </projection>

    <report>
        <aggregate-warnings value="5"/>
    </report>

</configuration>
-->

<net version="1.9" junctionCornerDetail="5" limitTurnSpeed="5.50" xmlns:xsi="http://www.w3.org/2001/XMLSchema-instance" xsi:noNamespaceSchemaLocation="http://sumo.dlr.de/xsd/net_file.xsd">

    <location netOffset="-528342.23,-4497538.53" convBoundary="0.00,0.00,768.24,1240.72" origBoundary="-8.685313,40.628175,-8.655753,40.639357" projParameter="+proj=utm +zone=29 +ellps=WGS84 +datum=WGS84 +units=m +no_defs"/>

    <type id="highway.bridleway" priority="1" numLanes="1" speed="2.78" allow="pedestrian" oneway="1" width="2.00"/>
    <type id="highway.bus_guideway" priority="1" numLanes="1" speed="27.78" allow="bus" oneway="1"/>
    <type id="highway.cycleway" priority="1" numLanes="1" speed="8.33" allow="bicycle" oneway="0" width="1.00"/>
    <type id="highway.footway" priority="1" numLanes="1" speed="2.78" allow="pedestrian" oneway="1" width="2.00"/>
    <type id="highway.ford" priority="1" numLanes="1" speed="2.78" allow="army" oneway="0"/>
    <type id="highway.living_street" priority="2" numLanes="1" speed="2.78" disallow="tram rail_urban rail rail_electric rail_fast ship" oneway="0"/>
    <type id="highway.motorway" priority="14" numLanes="2" speed="39.44" allow="private emergency authority army vip passenger hov taxi bus coach delivery truck trailer motorcycle evehicle custom1 custom2" oneway="1"/>
    <type id="highway.motorway_link" priority="9" numLanes="1" speed="22.22" allow="private emergency authority army vip passenger hov taxi bus coach delivery truck trailer motorcycle evehicle custom1 custom2" oneway="1"/>
    <type id="highway.path" priority="1" numLanes="1" speed="2.78" allow="pedestrian bicycle" oneway="0" width="2.00"/>
    <type id="highway.pedestrian" priority="1" numLanes="1" speed="2.78" allow="pedestrian" oneway="1" width="2.00"/>
    <type id="highway.primary" priority="12" numLanes="2" speed="27.78" disallow="tram rail_urban rail rail_electric rail_fast ship" oneway="0"/>
    <type id="highway.primary_link" priority="7" numLanes="1" speed="22.22" disallow="tram rail_urban rail rail_electric rail_fast ship" oneway="0"/>
    <type id="highway.raceway" priority="15" numLanes="2" speed="83.33" allow="vip" oneway="0"/>
    <type id="highway.residential" priority="3" numLanes="1" speed="13.89" disallow="tram rail_urban rail rail_electric rail_fast ship" oneway="0"/>
    <type id="highway.secondary" priority="11" numLanes="1" speed="27.78" disallow="tram rail_urban rail rail_electric rail_fast ship" oneway="0"/>
    <type id="highway.secondary_link" priority="6" numLanes="1" speed="22.22" disallow="tram rail_urban rail rail_electric rail_fast ship" oneway="0"/>
    <type id="highway.service" priority="1" numLanes="1" speed="5.56" allow="pedestrian delivery bicycle" oneway="0"/>
    <type id="highway.stairs" priority="1" numLanes="1" speed="1.39" allow="pedestrian" oneway="1" width="2.00"/>
    <type id="highway.step" priority="1" numLanes="1" speed="1.39" allow="pedestrian" oneway="1" width="2.00"/>
    <type id="highway.steps" priority="1" numLanes="1" speed="1.39" allow="pedestrian" oneway="1" width="2.00"/>
    <type id="highway.tertiary" priority="10" numLanes="1" speed="22.22" disallow="tram rail_urban rail rail_electric rail_fast ship" oneway="0"/>
    <type id="highway.tertiary_link" priority="5" numLanes="1" speed="22.22" disallow="tram rail_urban rail rail_electric rail_fast ship" oneway="0"/>
    <type id="highway.track" priority="1" numLanes="1" speed="5.56" allow="pedestrian motorcycle moped bicycle" oneway="0"/>
    <type id="highway.trunk" priority="13" numLanes="2" speed="27.78" disallow="pedestrian bicycle tram rail_urban rail rail_electric rail_fast ship" oneway="0"/>
    <type id="highway.trunk_link" priority="8" numLanes="1" speed="22.22" disallow="pedestrian bicycle tram rail_urban rail rail_electric rail_fast ship" oneway="0"/>
    <type id="highway.unclassified" priority="4" numLanes="1" speed="13.89" disallow="tram rail_urban rail rail_electric rail_fast ship" oneway="0"/>
    <type id="highway.unsurfaced" priority="1" numLanes="1" speed="8.33" disallow="tram rail_urban rail rail_electric rail_fast ship" oneway="0"/>
    <type id="railway.highspeed" priority="21" numLanes="1" speed="69.44" allow="rail_fast" oneway="1"/>
    <type id="railway.light_rail" priority="19" numLanes="1" speed="27.78" allow="rail_urban" oneway="1"/>
    <type id="railway.preserved" priority="16" numLanes="1" speed="27.78" allow="rail" oneway="1"/>
    <type id="railway.rail" priority="20" numLanes="1" speed="44.44" allow="rail" oneway="1"/>
    <type id="railway.subway" priority="18" numLanes="1" speed="27.78" allow="rail_urban" oneway="1"/>
    <type id="railway.tram" priority="17" numLanes="1" speed="13.89" allow="tram" oneway="1"/>

    <edge id=":10002075832_0" function="internal">
        <lane id=":10002075832_0_0" index="0" allow="bicycle" speed="2.04" length="1.46" width="1.00" shape="451.74,1240.59 451.60,1241.02 451.39,1241.21 451.12,1241.15 450.77,1240.86"/>
    </edge>
    <edge id=":10002075834_0" function="internal">
        <lane id=":10002075834_0_0" index="0" disallow="tram rail_urban rail rail_electric rail_fast ship" speed="20.84" length="6.57" shape="522.43,1072.56 522.86,1070.69 522.88,1069.37 522.70,1068.01 522.51,1066.07"/>
    </edge>
    <edge id=":10002075834_1" function="internal">
        <lane id=":10002075834_1_0" index="0" disallow="tram rail_urban rail rail_electric rail_fast ship" speed="7.42" length="6.41" shape="522.43,1072.56 523.09,1070.92 523.99,1069.60 525.13,1068.61 526.51,1067.95"/>
    </edge>
    <edge id=":10002075838_0" function="internal">
        <lane id=":10002075838_0_0" index="0" disallow="tram rail_urban rail rail_electric rail_fast ship" speed="8.91" length="5.57" shape="528.19,1063.72 529.03,1065.17 529.60,1066.24 530.36,1067.05 531.79,1067.70"/>
    </edge>
    <edge id=":10002075838_1" function="internal">
        <lane id=":10002075838_1_0" index="0" disallow="tram rail_urban rail rail_electric rail_fast ship" speed="9.15" length="5.24" shape="526.70,1067.88 528.18,1067.41 529.24,1067.21 530.31,1067.29 531.79,1067.70"/>
    </edge>
    <edge id=":10002075839_0" function="internal">
        <lane id=":10002075839_0_0" index="0" disallow="tram rail_urban rail rail_electric rail_fast ship" speed="14.89" length="6.13" shape="531.98,1067.76 533.71,1068.14 534.95,1068.08 536.21,1067.79 538.01,1067.47"/>
    </edge>
    <edge id=":10002075839_1" function="internal">
        <lane id=":10002075839_1_0" index="0" disallow="tram rail_urban rail rail_electric rail_fast ship" speed="7.22" length="5.90" shape="531.98,1067.76 533.54,1068.40 534.78,1069.22 535.69,1070.24 536.30,1071.46"/>
    </edge>
    <edge id=":10002075840_0" function="internal">
        <lane id=":10002075840_0_0" index="0" disallow="tram rail_urban rail rail_electric rail_fast ship" speed="10.01" length="4.50" shape="539.61,1073.58 538.56,1074.42 537.80,1074.99 537.21,1075.68 536.70,1076.87"/>
    </edge>
    <edge id=":10002075840_1" function="internal">
        <lane id=":10002075840_1_0" index="0" disallow="tram rail_urban rail rail_electric rail_fast ship" speed="9.03" length="5.40" shape="536.36,1071.65 536.88,1073.16 537.15,1074.26 537.11,1075.35 536.70,1076.87"/>
    </edge>
    <edge id=":10002075841_0" function="internal">
        <lane id=":10002075841_0_0" index="0" disallow="tram rail_urban rail rail_electric rail_fast ship" speed="8.02" length="5.52" shape="536.63,1077.06 536.34,1078.57 536.58,1079.64 537.20,1080.69 538.01,1082.14"/>
    </edge>
    <edge id=":10002075841_1" function="internal">
        <lane id=":10002075841_1_0" index="0" disallow="tram rail_urban rail rail_electric rail_fast ship" speed="8.06" length="4.77" shape="536.63,1077.06 536.18,1078.39 535.75,1079.29 535.09,1080.01 533.95,1080.80"/>
    </edge>
    <edge id=":10002075844_0" function="internal">
        <lane id=":10002075844_0_0" index="0" disallow="tram rail_urban rail rail_electric rail_fast ship" speed="13.96" length="6.21" shape="534.03,1085.03 532.53,1083.94 531.51,1083.13 530.40,1082.55 528.64,1082.17"/>
    </edge>
    <edge id=":10002075844_1" function="internal">
        <lane id=":10002075844_1_0" index="0" disallow="tram rail_urban rail rail_electric rail_fast ship" speed="8.68" length="5.47" shape="533.78,1080.91 532.39,1081.74 531.35,1082.19 530.23,1082.31 528.64,1082.17"/>
    </edge>
    <edge id=":10002075845_0" function="internal">
        <lane id=":10002075845_0_0" index="0" disallow="tram rail_urban rail rail_electric rail_fast ship" speed="15.21" length="6.29" shape="528.44,1082.14 526.62,1082.04 525.38,1082.29 524.15,1082.78 522.38,1083.40"/>
    </edge>
    <edge id=":10002075845_1" function="internal">
        <lane id=":10002075845_1_0" index="0" disallow="tram rail_urban rail rail_electric rail_fast ship" speed="6.95" length="6.17" shape="528.44,1082.14 526.59,1081.75 525.12,1081.13 524.03,1080.28 523.33,1079.19"/>
    </edge>
    <edge id=":10002075852_0" function="internal">
        <lane id=":10002075852_0_0" index="0" disallow="tram rail_urban rail rail_electric rail_fast ship" speed="9.35" length="6.55" shape="523.25,1079.01 522.46,1077.23 522.00,1075.93 521.95,1074.60 522.37,1072.75"/>
    </edge>
    <edge id=":10002075852_1" function="internal">
        <lane id=":10002075852_1_0" index="0" disallow="tram rail_urban rail rail_electric rail_fast ship" speed="27.78" length="6.73" shape="518.97,1078.50 520.14,1076.88 521.00,1075.78 521.70,1074.61 522.37,1072.75"/>
    </edge>
    <edge id=":10002075853_0" function="internal">
        <lane id=":10002075853_0_0" index="0" disallow="tram rail_urban rail rail_electric rail_fast ship" speed="27.78" length="5.56" shape="521.33,1083.70 519.77,1084.21 518.75,1084.70 517.80,1085.32 516.41,1086.23"/>
    </edge>
    <edge id=":10002075853_1" function="internal">
        <lane id=":10002075853_1_0" index="0" disallow="tram rail_urban rail rail_electric rail_fast ship" speed="4.99" length="3.61" shape="521.33,1083.70 518.37,1084.31 517.79,1084.22"/>
    </edge>
    <edge id=":10002075853_4" function="internal">
        <lane id=":10002075853_4_0" index="0" disallow="tram rail_urban rail rail_electric rail_fast ship" speed="4.99" length="4.50" shape="517.79,1084.22 516.72,1084.05 516.39,1082.91 517.36,1080.90"/>
    </edge>
    <edge id=":10002075853_2" function="internal">
        <lane id=":10002075853_2_0" index="0" disallow="tram rail_urban rail rail_electric rail_fast ship" speed="11.59" length="3.77" shape="514.71,1083.52 515.64,1082.91 516.24,1082.42 516.73,1081.83 517.36,1080.90"/>
    </edge>
    <edge id=":10002075853_3" function="internal">
        <lane id=":10002075853_3_0" index="0" disallow="tram rail_urban rail rail_electric rail_fast ship" speed="3.65" length="1.44" shape="514.71,1083.52 516.15,1083.56"/>
    </edge>
    <edge id=":10002075853_5" function="internal">
        <lane id=":10002075853_5_0" index="0" disallow="tram rail_urban rail rail_electric rail_fast ship" speed="3.65" length="3.23" shape="516.15,1083.56 516.92,1084.02 517.00,1084.91 516.41,1086.23"/>
    </edge>
    <edge id=":10002075854_0" function="internal">
        <lane id=":10002075854_0_0" index="0" disallow="tram rail_urban rail rail_electric rail_fast ship" speed="20.83" length="9.15" shape="547.40,1068.46 545.06,1069.85 543.42,1070.74 541.85,1071.73 539.76,1073.45"/>
    </edge>
    <edge id=":10002075854_1" function="internal">
        <lane id=":10002075854_1_0" index="0" disallow="tram rail_urban rail rail_electric rail_fast ship" speed="3.65" length="1.44" shape="547.40,1068.46 545.96,1068.44"/>
    </edge>
    <edge id=":10002075854_4" function="internal">
        <lane id=":10002075854_4_0" index="0" disallow="tram rail_urban rail rail_electric rail_fast ship" speed="3.65" length="3.23" shape="545.96,1068.44 545.19,1067.98 545.09,1067.09 545.67,1065.77"/>
    </edge>
    <edge id=":10002075854_2" function="internal">
        <lane id=":10002075854_2_0" index="0" disallow="tram rail_urban rail rail_electric rail_fast ship" speed="11.70" length="4.75" shape="541.19,1067.11 542.59,1066.97 543.56,1066.82 544.46,1066.48 545.67,1065.77"/>
    </edge>
    <edge id=":10002075854_3" function="internal">
        <lane id=":10002075854_3_0" index="0" disallow="tram rail_urban rail rail_electric rail_fast ship" speed="5.43" length="3.57" shape="541.19,1067.11 543.53,1067.23 544.08,1068.33"/>
    </edge>
    <edge id=":10002075854_5" function="internal">
        <lane id=":10002075854_5_0" index="0" disallow="tram rail_urban rail rail_electric rail_fast ship" speed="5.43" length="6.74" shape="544.08,1068.33 542.82,1070.40 539.76,1073.45"/>
    </edge>
    <edge id=":10002075855_0" function="internal">
        <lane id=":10002075855_0_0" index="0" disallow="tram rail_urban rail rail_electric rail_fast ship" speed="13.89" length="3.98" shape="522.30,1061.72 522.24,1060.54 522.16,1059.73 521.95,1058.95 521.54,1057.84"/>
    </edge>
    <edge id=":10002075855_1" function="internal">
        <lane id=":10002075855_1_0" index="0" disallow="tram rail_urban rail rail_electric rail_fast ship" speed="5.12" length="3.07" shape="522.30,1061.72 522.46,1059.04 522.74,1058.77"/>
    </edge>
    <edge id=":10002075855_4" function="internal">
        <lane id=":10002075855_4_0" index="0" disallow="tram rail_urban rail rail_electric rail_fast ship" speed="5.12" length="6.19" shape="522.74,1058.77 523.31,1058.20 524.83,1059.18 527.02,1062.00"/>
    </edge>
    <edge id=":10002075855_2" function="internal">
        <lane id=":10002075855_2_0" index="0" disallow="tram rail_urban rail rail_electric rail_fast ship" speed="13.89" length="5.92" shape="524.52,1056.67 525.13,1058.31 525.56,1059.45 526.08,1060.52 527.02,1062.00"/>
    </edge>
    <edge id=":10002075855_3" function="internal">
        <lane id=":10002075855_3_0" index="0" disallow="tram rail_urban rail rail_electric rail_fast ship" speed="3.65" length="1.44" shape="524.52,1056.67 524.21,1058.08"/>
    </edge>
    <edge id=":10002075855_5" function="internal">
        <lane id=":10002075855_5_0" index="0" disallow="tram rail_urban rail rail_electric rail_fast ship" speed="3.65" length="3.23" shape="524.21,1058.08 523.62,1058.74 522.73,1058.66 521.54,1057.84"/>
    </edge>
    <edge id=":10002075857_0" function="internal">
        <lane id=":10002075857_0_0" index="0" disallow="tram rail_urban rail rail_electric rail_fast ship" speed="13.89" length="6.02" shape="539.83,1090.55 538.55,1089.33 537.85,1088.28 537.14,1087.27 535.78,1086.16"/>
    </edge>
    <edge id=":10002075857_1" function="internal">
        <lane id=":10002075857_1_0" index="0" disallow="tram rail_urban rail rail_electric rail_fast ship" speed="3.65" length="1.44" shape="539.83,1090.55 539.36,1089.19"/>
    </edge>
    <edge id=":10002075857_4" function="internal">
        <lane id=":10002075857_4_0" index="0" disallow="tram rail_urban rail rail_electric rail_fast ship" speed="3.65" length="3.23" shape="539.36,1089.19 539.53,1088.31 540.33,1087.92 541.77,1088.01"/>
    </edge>
    <edge id=":10002075857_2" function="internal">
        <lane id=":10002075857_2_0" index="0" disallow="tram rail_urban rail rail_electric rail_fast ship" speed="12.17" length="5.48" shape="538.70,1083.58 539.37,1085.07 539.87,1086.10 540.55,1086.97 541.77,1088.01"/>
    </edge>
    <edge id=":10002075857_3" function="internal">
        <lane id=":10002075857_3_0" index="0" disallow="tram rail_urban rail rail_electric rail_fast ship" speed="4.86" length="2.95" shape="538.70,1083.58 539.68,1086.17 539.66,1086.36"/>
    </edge>
    <edge id=":10002075857_5" function="internal">
        <lane id=":10002075857_5_0" index="0" disallow="tram rail_urban rail rail_electric rail_fast ship" speed="4.86" length="5.17" shape="539.66,1086.36 539.52,1087.46 538.22,1087.45 535.78,1086.16"/>
    </edge>
    <edge id=":10981112633_0" function="internal">
        <lane id=":10981112633_0_0" index="0" allow="pedestrian delivery bicycle" speed="3.65" length="4.67" shape="477.92,639.69 479.34,639.49 480.17,639.81 480.41,640.68 480.06,642.07"/>
    </edge>
    <edge id=":10981112666_0" function="internal">
        <lane id=":10981112666_0_0" index="0" allow="pedestrian delivery bicycle" speed="5.56" length="5.00" shape="510.95,746.76 507.37,743.26"/>
    </edge>
    <edge id=":10981112666_1" function="internal">
        <lane id=":10981112666_1_0" index="0" allow="pedestrian delivery bicycle" speed="3.65" length="1.44" shape="510.95,746.76 510.65,745.35"/>
    </edge>
    <edge id=":10981112666_4" function="internal">
        <lane id=":10981112666_4_0" index="0" allow="pedestrian delivery bicycle" speed="3.65" length="3.23" shape="510.65,745.35 510.92,744.49 511.77,744.20 513.18,744.47"/>
    </edge>
    <edge id=":10981112666_2" function="internal">
        <lane id=":10981112666_2_0" index="0" allow="pedestrian delivery bicycle" speed="5.56" length="5.00" shape="509.61,740.97 513.18,744.47"/>
    </edge>
    <edge id=":10981112666_3" function="internal">
        <lane id=":10981112666_3_0" index="0" allow="pedestrian delivery bicycle" speed="3.65" length="1.44" shape="509.61,740.97 509.91,742.38"/>
    </edge>
    <edge id=":10981112666_5" function="internal">
        <lane id=":10981112666_5_0" index="0" allow="pedestrian delivery bicycle" speed="3.65" length="3.23" shape="509.91,742.38 509.63,743.24 508.79,743.53 507.37,743.26"/>
    </edge>
    <edge id=":10981112997_0" function="internal">
        <lane id=":10981112997_0_0" index="0" allow="pedestrian delivery bicycle" speed="5.56" length="9.40" shape="418.72,701.04 411.94,707.56"/>
    </edge>
    <edge id=":10981112997_1" function="internal">
        <lane id=":10981112997_1_0" index="0" allow="pedestrian delivery bicycle" speed="5.56" length="10.17" shape="418.72,701.04 416.49,702.64 414.25,703.15 412.01,702.56 409.76,700.87"/>
    </edge>
    <edge id=":10981112997_2" function="internal">
        <lane id=":10981112997_2_0" index="0" allow="pedestrian delivery bicycle" speed="3.65" length="4.67" shape="418.72,701.04 417.30,701.30 416.46,701.00 416.19,700.14 416.50,698.74"/>
    </edge>
    <edge id=":10981112997_3" function="internal">
        <lane id=":10981112997_3_0" index="0" allow="pedestrian delivery bicycle" speed="5.12" length="5.09" shape="412.01,698.60 413.15,699.46 414.27,699.76 415.39,699.52 416.50,698.74"/>
    </edge>
    <edge id=":10981112997_4" function="internal">
        <lane id=":10981112997_4_0" index="0" allow="pedestrian delivery bicycle" speed="5.56" length="10.27" shape="412.01,698.60 413.71,700.85 414.27,703.10 413.68,705.33 411.94,707.56"/>
    </edge>
    <edge id=":10981112997_5" function="internal">
        <lane id=":10981112997_5_0" index="0" allow="pedestrian delivery bicycle" speed="3.65" length="4.67" shape="412.01,698.60 412.30,700.01 412.02,700.86 411.17,701.15 409.76,700.87"/>
    </edge>
    <edge id=":10981112997_6" function="internal">
        <lane id=":10981112997_6_0" index="0" allow="pedestrian delivery bicycle" speed="5.02" length="5.03" shape="409.73,705.26 410.57,704.17 410.86,703.07 410.59,701.97 409.76,700.87"/>
    </edge>
    <edge id=":10981112997_7" function="internal">
        <lane id=":10981112997_7_0" index="0" allow="pedestrian delivery bicycle" speed="5.56" length="9.40" shape="409.73,705.26 416.50,698.74"/>
    </edge>
    <edge id=":10981112997_8" function="internal">
        <lane id=":10981112997_8_0" index="0" allow="pedestrian delivery bicycle" speed="3.65" length="4.67" shape="409.73,705.26 411.14,705.00 411.99,705.30 412.25,706.15 411.94,707.56"/>
    </edge>
    <edge id=":10981112999_0" function="internal">
        <lane id=":10981112999_0_0" index="0" allow="pedestrian delivery bicycle" speed="3.65" length="4.67" shape="402.60,684.47 404.01,684.17 404.86,684.44 405.16,685.28 404.90,686.70"/>
    </edge>
    <edge id=":11025314438_0" function="internal">
        <lane id=":11025314438_0_0" index="0" allow="bicycle" speed="3.88" length="3.20" shape="304.18,609.08 303.70,608.33 303.10,607.92 302.38,607.82 301.55,608.05"/>
    </edge>
    <edge id=":11025314438_1" function="internal">
        <lane id=":11025314438_1_0" index="0" allow="bicycle" speed="8.33" length="9.42" width="1.00" shape="304.18,609.08 300.43,600.44"/>
    </edge>
    <edge id=":11025314438_2" function="internal">
        <lane id=":11025314438_2_0" index="0" allow="bicycle" speed="5.71" length="7.54" shape="304.18,609.08 303.49,607.66 302.45,605.39 301.67,603.21 301.73,602.07"/>
    </edge>
    <edge id=":11025314438_3" function="internal">
        <lane id=":11025314438_3_0" index="0" allow="bicycle" speed="2.04" length="0.73" width="1.00" shape="304.18,609.08 304.26,608.63 304.44,608.42"/>
    </edge>
    <edge id=":11025314438_16" function="internal">
        <lane id=":11025314438_16_0" index="0" allow="bicycle" speed="2.04" length="0.73" width="1.00" shape="304.44,608.42 304.72,608.44 305.10,608.68"/>
    </edge>
    <edge id=":11025314438_4" function="internal">
        <lane id=":11025314438_4_0" index="0" allow="bicycle" speed="3.59" length="2.05" width="1.00" shape="303.94,606.99 305.10,608.68"/>
    </edge>
    <edge id=":11025314438_5" function="internal">
        <lane id=":11025314438_5_0" index="0" allow="pedestrian motorcycle moped bicycle" speed="5.56" length="2.61" shape="303.49,605.99 301.10,607.05"/>
    </edge>
    <edge id=":11025314438_6" function="internal">
        <lane id=":11025314438_6_0" index="0" allow="bicycle" speed="5.18" length="5.39" width="1.00" shape="303.04,604.99 302.30,604.58 301.54,603.21 300.88,601.59 300.43,600.44"/>
    </edge>
    <edge id=":11025314438_7" function="internal">
        <lane id=":11025314438_7_0" index="0" allow="pedestrian motorcycle moped bicycle" speed="3.65" length="4.67" shape="303.49,605.99 302.07,605.75 301.37,605.19 301.41,604.29 302.18,603.07"/>
    </edge>
    <edge id=":11025314438_8" function="internal">
        <lane id=":11025314438_8_0" index="0" allow="bicycle" speed="3.16" length="2.06" shape="301.35,600.04 301.73,602.07"/>
    </edge>
    <edge id=":11025314438_9" function="internal">
        <lane id=":11025314438_9_0" index="0" allow="bicycle" speed="8.33" length="9.42" width="1.00" shape="301.35,600.04 305.10,608.68"/>
    </edge>
    <edge id=":11025314438_10" function="internal">
        <lane id=":11025314438_10_0" index="0" allow="bicycle" speed="6.18" length="4.60" shape="301.35,600.04 302.47,603.09 302.70,604.42"/>
    </edge>
    <edge id=":11025314438_11" function="internal">
        <lane id=":11025314438_11_0" index="0" allow="bicycle" speed="2.04" length="0.73" width="1.00" shape="301.35,600.04 301.27,600.48 301.09,600.70"/>
    </edge>
    <edge id=":11025314438_17" function="internal">
        <lane id=":11025314438_17_0" index="0" allow="bicycle" speed="6.18" length="4.12" shape="302.70,604.42 302.87,605.44 302.57,607.10 301.55,608.05"/>
    </edge>
    <edge id=":11025314438_18" function="internal">
        <lane id=":11025314438_18_0" index="0" allow="bicycle" speed="2.04" length="0.73" width="1.00" shape="301.09,600.70 300.81,600.68 300.43,600.44"/>
    </edge>
    <edge id=":11025314438_12" function="internal">
        <lane id=":11025314438_12_0" index="0" allow="bicycle" speed="4.28" length="3.28" width="1.00" shape="299.36,603.12 300.13,602.64 300.56,602.03 300.66,601.30 300.43,600.44"/>
    </edge>
    <edge id=":11025314438_13" function="internal">
        <lane id=":11025314438_13_0" index="0" allow="pedestrian motorcycle moped bicycle" speed="5.56" length="2.60" shape="299.81,604.12 302.18,603.07"/>
    </edge>
    <edge id=":11025314438_14" function="internal">
        <lane id=":11025314438_14_0" index="0" allow="bicycle" speed="5.74" length="6.67" width="1.00" shape="300.25,605.13 301.54,604.92 302.78,605.44 303.96,606.69 305.10,608.68"/>
    </edge>
    <edge id=":11025314438_15" function="internal">
        <lane id=":11025314438_15_0" index="0" allow="pedestrian motorcycle moped bicycle" speed="3.65" length="4.67" shape="299.81,604.12 301.23,604.37 301.92,604.94 301.88,605.83 301.10,607.05"/>
    </edge>
    <edge id=":11025314451_0" function="internal">
        <lane id=":11025314451_0_0" index="0" allow="pedestrian motorcycle moped bicycle" speed="5.90" length="7.53" shape="474.07,954.75 472.82,952.61 471.45,951.32 469.98,950.90 468.41,951.33"/>
    </edge>
    <edge id=":11025314451_1" function="internal">
        <lane id=":11025314451_1_0" index="0" disallow="tram rail_urban rail rail_electric rail_fast ship" speed="13.89" length="14.41" shape="474.07,954.75 467.98,941.69"/>
    </edge>
    <edge id=":11025314451_2" function="internal">
        <lane id=":11025314451_2_0" index="0" disallow="tram rail_urban rail rail_electric rail_fast ship" speed="3.65" length="1.44" shape="474.07,954.75 474.29,953.33"/>
    </edge>
    <edge id=":11025314451_9" function="internal">
        <lane id=":11025314451_9_0" index="0" disallow="tram rail_urban rail rail_electric rail_fast ship" speed="3.65" length="3.23" shape="474.29,953.33 474.84,952.63 475.74,952.65 476.97,953.40"/>
    </edge>
    <edge id=":11025314451_3" function="internal">
        <lane id=":11025314451_3_0" index="0" disallow="tram rail_urban rail rail_electric rail_fast ship" speed="13.89" length="14.41" shape="470.88,940.34 476.97,953.40"/>
    </edge>
    <edge id=":11025314451_4" function="internal">
        <lane id=":11025314451_4_0" index="0" allow="pedestrian motorcycle moped bicycle" speed="7.73" length="4.33" shape="470.88,940.34 472.08,943.94 472.08,944.48"/>
    </edge>
    <edge id=":11025314451_5" function="internal">
        <lane id=":11025314451_5_0" index="0" disallow="tram rail_urban rail rail_electric rail_fast ship" speed="3.65" length="1.44" shape="470.88,940.34 470.66,941.77"/>
    </edge>
    <edge id=":11025314451_10" function="internal">
        <lane id=":11025314451_10_0" index="0" allow="pedestrian motorcycle moped bicycle" speed="7.73" length="8.34" shape="472.08,944.48 472.07,946.97 470.85,949.43 468.41,951.33"/>
    </edge>
    <edge id=":11025314451_11" function="internal">
        <lane id=":11025314451_11_0" index="0" disallow="tram rail_urban rail rail_electric rail_fast ship" speed="3.65" length="3.23" shape="470.66,941.77 470.11,942.47 469.21,942.44 467.98,941.69"/>
    </edge>
    <edge id=":11025314451_6" function="internal">
        <lane id=":11025314451_6_0" index="0" allow="pedestrian motorcycle moped bicycle" speed="6.17" length="7.71" shape="466.91,948.50 468.25,947.40 468.88,945.90 468.79,944.00 467.98,941.69"/>
    </edge>
    <edge id=":11025314451_7" function="internal">
        <lane id=":11025314451_7_0" index="0" allow="pedestrian motorcycle moped bicycle" speed="7.51" length="12.85" shape="466.91,948.50 469.87,947.57 472.54,948.07 474.91,950.02 476.97,953.40"/>
    </edge>
    <edge id=":11025314451_8" function="internal">
        <lane id=":11025314451_8_0" index="0" allow="pedestrian motorcycle moped bicycle" speed="3.65" length="4.67" shape="466.91,948.50 468.34,948.65 469.07,949.17 469.09,950.06 468.41,951.33"/>
    </edge>
    <edge id=":11025314452_0" function="internal">
        <lane id=":11025314452_0_0" index="0" allow="bicycle" speed="3.88" length="3.25" shape="468.45,954.78 467.96,954.04 467.35,953.64 466.62,953.57 465.76,953.83"/>
    </edge>
    <edge id=":11025314452_1" function="internal">
        <lane id=":11025314452_1_0" index="0" allow="bicycle" speed="8.33" length="9.45" width="1.00" shape="468.45,954.78 464.42,946.24"/>
    </edge>
    <edge id=":11025314452_2" function="internal">
        <lane id=":11025314452_2_0" index="0" allow="bicycle" speed="5.89" length="6.15" shape="468.45,954.78 467.13,951.83 466.32,949.66 466.19,949.07"/>
    </edge>
    <edge id=":11025314452_3" function="internal">
        <lane id=":11025314452_3_0" index="0" allow="bicycle" speed="2.04" length="0.73" width="1.00" shape="468.45,954.78 468.52,954.33 468.69,954.11"/>
    </edge>
    <edge id=":11025314452_16" function="internal">
        <lane id=":11025314452_16_0" index="0" allow="bicycle" speed="5.89" length="1.49" shape="466.19,949.07 466.01,948.25 466.21,947.63"/>
    </edge>
    <edge id=":11025314452_17" function="internal">
        <lane id=":11025314452_17_0" index="0" allow="bicycle" speed="2.04" length="0.73" width="1.00" shape="468.69,954.11 468.97,954.12 469.36,954.35"/>
    </edge>
    <edge id=":11025314452_4" function="internal">
        <lane id=":11025314452_4_0" index="0" allow="bicycle" speed="3.83" length="2.36" width="1.00" shape="468.74,952.40 468.41,952.77 468.56,953.21 468.96,953.73 469.36,954.35"/>
    </edge>
    <edge id=":11025314452_5" function="internal">
        <lane id=":11025314452_5_0" index="0" allow="pedestrian motorcycle moped bicycle" speed="5.56" length="3.25" shape="468.23,951.42 465.30,952.83"/>
    </edge>
    <edge id=":11025314452_6" function="internal">
        <lane id=":11025314452_6_0" index="0" allow="bicycle" speed="5.21" length="5.60" width="1.00" shape="467.71,950.45 467.12,950.40 466.37,949.68 465.47,948.29 464.42,946.24"/>
    </edge>
    <edge id=":11025314452_7" function="internal">
        <lane id=":11025314452_7_0" index="0" allow="pedestrian motorcycle moped bicycle" speed="3.65" length="4.67" shape="468.23,951.42 466.79,951.28 466.07,950.76 466.04,949.87 466.73,948.60"/>