<?xml version="1.0" encoding="UTF-8"?>

<!-- generated on 2024-03-11 22:59:43 by Eclipse SUMO netconvert Version 1.19.0
<configuration xmlns:xsi="http://www.w3.org/2001/XMLSchema-instance" xsi:noNamespaceSchemaLocation="http://sumo.dlr.de/xsd/netconvertConfiguration.xsd">

    <input>
        <osm-files value="../../../../home/bernardo/Downloads/map.osm"/>
    </input>

    <output>
        <output-file value="teste.net.xml"/>
    </output>

    <projection>
        <proj.utm value="true"/>
    </projection>

</configuration>
-->

<net version="1.16" junctionCornerDetail="5" limitTurnSpeed="5.50" xmlns:xsi="http://www.w3.org/2001/XMLSchema-instance" xsi:noNamespaceSchemaLocation="http://sumo.dlr.de/xsd/net_file.xsd">

    <location netOffset="-528342.23,-4497530.78" convBoundary="0.00,0.00,768.24,1248.47" origBoundary="-8.685313,40.628118,-8.655753,40.639357" projParameter="+proj=utm +zone=29 +ellps=WGS84 +datum=WGS84 +units=m +no_defs"/>

    <type id="highway.cycleway" priority="1" numLanes="1" speed="5.56" allow="bicycle" oneway="0" width="2.00"/>
    <type id="highway.footway" priority="1" numLanes="1" speed="2.78" allow="pedestrian" oneway="1" width="2.00"/>
    <type id="highway.path" priority="1" numLanes="1" speed="5.56" allow="pedestrian bicycle" oneway="0" width="2.00"/>
    <type id="highway.residential" priority="3" numLanes="1" speed="13.89" disallow="tram rail_urban rail rail_electric rail_fast ship" oneway="0"/>
    <type id="highway.secondary" priority="11" numLanes="1" speed="27.78" disallow="tram rail_urban rail rail_electric rail_fast ship" oneway="0"/>
    <type id="highway.service" priority="1" numLanes="1" speed="5.56" allow="pedestrian delivery bicycle" oneway="0"/>
    <type id="highway.steps" priority="1" numLanes="1" speed="1.39" allow="pedestrian" oneway="1" width="2.00"/>
    <type id="highway.track" priority="1" numLanes="1" speed="5.56" allow="pedestrian motorcycle moped bicycle" oneway="0"/>
    <type id="highway.unclassified" priority="4" numLanes="1" speed="13.89" disallow="tram rail_urban rail rail_electric rail_fast ship" oneway="0"/>

    <edge id=":10002075832_0" function="internal">
        <lane id=":10002075832_0_0" index="0" allow="bicycle" speed="2.89" length="2.92" width="2.00" shape="452.22,1248.19 451.94,1249.05 451.53,1249.43 450.98,1249.32 450.29,1248.74"/>
    </edge>
    <edge id=":10002075834_0" function="internal">
        <lane id=":10002075834_0_0" index="0" disallow="tram rail_urban rail rail_electric rail_fast ship" speed="20.84" length="6.57" shape="522.43,1080.31 522.86,1078.43 522.88,1077.11 522.70,1075.76 522.51,1073.81"/>
    </edge>
    <edge id=":10002075834_1" function="internal">
        <lane id=":10002075834_1_0" index="0" disallow="tram rail_urban rail rail_electric rail_fast ship" speed="7.42" length="6.41" shape="522.43,1080.31 523.09,1078.66 523.99,1077.34 525.13,1076.35 526.51,1075.69"/>
    </edge>
    <edge id=":10002075838_0" function="internal">
        <lane id=":10002075838_0_0" index="0" disallow="tram rail_urban rail rail_electric rail_fast ship" speed="8.91" length="5.57" shape="528.19,1071.46 529.03,1072.91 529.60,1073.98 530.36,1074.79 531.79,1075.44"/>
    </edge>
    <edge id=":10002075838_1" function="internal">
        <lane id=":10002075838_1_0" index="0" disallow="tram rail_urban rail rail_electric rail_fast ship" speed="9.15" length="5.24" shape="526.70,1075.63 528.18,1075.15 529.24,1074.95 530.31,1075.04 531.79,1075.44"/>
    </edge>
    <edge id=":10002075839_0" function="internal">
        <lane id=":10002075839_0_0" index="0" disallow="tram rail_urban rail rail_electric rail_fast ship" speed="14.89" length="6.13" shape="531.98,1075.50 533.71,1075.89 534.95,1075.82 536.21,1075.53 538.01,1075.21"/>
    </edge>
    <edge id=":10002075839_1" function="internal">
        <lane id=":10002075839_1_0" index="0" disallow="tram rail_urban rail rail_electric rail_fast ship" speed="7.22" length="5.90" shape="531.98,1075.50 533.54,1076.14 534.78,1076.97 535.69,1077.99 536.30,1079.20"/>
    </edge>
    <edge id=":10002075840_0" function="internal">
        <lane id=":10002075840_0_0" index="0" disallow="tram rail_urban rail rail_electric rail_fast ship" speed="10.01" length="4.50" shape="539.61,1081.32 538.56,1082.16 537.80,1082.73 537.21,1083.42 536.70,1084.61"/>
    </edge>
    <edge id=":10002075840_1" function="internal">
        <lane id=":10002075840_1_0" index="0" disallow="tram rail_urban rail rail_electric rail_fast ship" speed="9.03" length="5.40" shape="536.36,1079.39 536.88,1080.90 537.15,1082.00 537.11,1083.10 536.70,1084.61"/>
    </edge>
    <edge id=":10002075841_0" function="internal">
        <lane id=":10002075841_0_0" index="0" disallow="tram rail_urban rail rail_electric rail_fast ship" speed="8.02" length="5.52" shape="536.63,1084.80 536.34,1086.31 536.58,1087.38 537.20,1088.43 538.01,1089.88"/>
    </edge>
    <edge id=":10002075841_1" function="internal">
        <lane id=":10002075841_1_0" index="0" disallow="tram rail_urban rail rail_electric rail_fast ship" speed="8.06" length="4.77" shape="536.63,1084.80 536.18,1086.14 535.75,1087.04 535.09,1087.75 533.95,1088.54"/>
    </edge>
    <edge id=":10002075844_0" function="internal">
        <lane id=":10002075844_0_0" index="0" disallow="tram rail_urban rail rail_electric rail_fast ship" speed="13.96" length="6.21" shape="534.03,1092.77 532.53,1091.68 531.51,1090.87 530.40,1090.29 528.64,1089.91"/>
    </edge>
    <edge id=":10002075844_1" function="internal">
        <lane id=":10002075844_1_0" index="0" disallow="tram rail_urban rail rail_electric rail_fast ship" speed="8.68" length="5.47" shape="533.78,1088.65 532.39,1089.48 531.35,1089.93 530.23,1090.05 528.64,1089.91"/>
    </edge>
    <edge id=":10002075845_0" function="internal">
        <lane id=":10002075845_0_0" index="0" disallow="tram rail_urban rail rail_electric rail_fast ship" speed="15.21" length="6.29" shape="528.44,1089.88 526.62,1089.78 525.38,1090.03 524.15,1090.52 522.38,1091.14"/>
    </edge>
    <edge id=":10002075845_1" function="internal">
        <lane id=":10002075845_1_0" index="0" disallow="tram rail_urban rail rail_electric rail_fast ship" speed="6.95" length="6.17" shape="528.44,1089.88 526.59,1089.49 525.12,1088.87 524.03,1088.02 523.33,1086.94"/>
    </edge>
    <edge id=":10002075852_0" function="internal">
        <lane id=":10002075852_0_0" index="0" disallow="tram rail_urban rail rail_electric rail_fast ship" speed="9.35" length="6.55" shape="523.25,1086.75 522.46,1084.97 522.00,1083.67 521.95,1082.34 522.37,1080.50"/>
    </edge>
    <edge id=":10002075852_1" function="internal">
        <lane id=":10002075852_1_0" index="0" disallow="tram rail_urban rail rail_electric rail_fast ship" speed="27.78" length="6.73" shape="518.97,1086.24 520.14,1084.62 521.00,1083.52 521.70,1082.35 522.37,1080.50"/>
    </edge>
    <edge id=":10002075853_0" function="internal">
        <lane id=":10002075853_0_0" index="0" disallow="tram rail_urban rail rail_electric rail_fast ship" speed="27.78" length="5.56" shape="521.33,1091.44 519.77,1091.96 518.75,1092.44 517.80,1093.06 516.41,1093.97"/>
    </edge>
    <edge id=":10002075853_1" function="internal">
        <lane id=":10002075853_1_0" index="0" disallow="tram rail_urban rail rail_electric rail_fast ship" speed="4.99" length="3.61" shape="521.33,1091.44 518.37,1092.05 517.79,1091.96"/>
    </edge>
    <edge id=":10002075853_4" function="internal">
        <lane id=":10002075853_4_0" index="0" disallow="tram rail_urban rail rail_electric rail_fast ship" speed="4.99" length="4.50" shape="517.79,1091.96 516.72,1091.79 516.39,1090.65 517.36,1088.65"/>
    </edge>
    <edge id=":10002075853_2" function="internal">
        <lane id=":10002075853_2_0" index="0" disallow="tram rail_urban rail rail_electric rail_fast ship" speed="11.59" length="3.77" shape="514.71,1091.26 515.64,1090.65 516.24,1090.16 516.73,1089.57 517.36,1088.65"/>
    </edge>
    <edge id=":10002075853_3" function="internal">
        <lane id=":10002075853_3_0" index="0" disallow="tram rail_urban rail rail_electric rail_fast ship" speed="3.65" length="1.44" shape="514.71,1091.26 516.15,1091.30"/>
    </edge>
    <edge id=":10002075853_5" function="internal">
        <lane id=":10002075853_5_0" index="0" disallow="tram rail_urban rail rail_electric rail_fast ship" speed="3.65" length="3.23" shape="516.15,1091.30 516.92,1091.77 517.00,1092.66 516.41,1093.97"/>
    </edge>
    <edge id=":10002075854_0" function="internal">
        <lane id=":10002075854_0_0" index="0" disallow="tram rail_urban rail rail_electric rail_fast ship" speed="20.83" length="9.15" shape="547.40,1076.20 545.06,1077.60 543.42,1078.48 541.85,1079.48 539.76,1081.19"/>
    </edge>
    <edge id=":10002075854_1" function="internal">
        <lane id=":10002075854_1_0" index="0" disallow="tram rail_urban rail rail_electric rail_fast ship" speed="3.65" length="1.44" shape="547.40,1076.20 545.96,1076.18"/>
    </edge>
    <edge id=":10002075854_4" function="internal">
        <lane id=":10002075854_4_0" index="0" disallow="tram rail_urban rail rail_electric rail_fast ship" speed="3.65" length="3.23" shape="545.96,1076.18 545.19,1075.72 545.09,1074.83 545.67,1073.51"/>
    </edge>
    <edge id=":10002075854_2" function="internal">
        <lane id=":10002075854_2_0" index="0" disallow="tram rail_urban rail rail_electric rail_fast ship" speed="11.70" length="4.75" shape="541.19,1074.85 542.59,1074.71 543.56,1074.56 544.46,1074.22 545.67,1073.51"/>
    </edge>
    <edge id=":10002075854_3" function="internal">
        <lane id=":10002075854_3_0" index="0" disallow="tram rail_urban rail rail_electric rail_fast ship" speed="5.43" length="3.57" shape="541.19,1074.85 543.53,1074.97 544.08,1076.07"/>
    </edge>
    <edge id=":10002075854_5" function="internal">
        <lane id=":10002075854_5_0" index="0" disallow="tram rail_urban rail rail_electric rail_fast ship" speed="5.43" length="6.74" shape="544.08,1076.07 542.82,1078.14 539.76,1081.19"/>
    </edge>
    <edge id=":10002075855_0" function="internal">
        <lane id=":10002075855_0_0" index="0" disallow="tram rail_urban rail rail_electric rail_fast ship" speed="13.89" length="3.98" shape="522.30,1069.46 522.24,1068.28 522.16,1067.47 521.95,1066.69 521.54,1065.59"/>
    </edge>
    <edge id=":10002075855_1" function="internal">
        <lane id=":10002075855_1_0" index="0" disallow="tram rail_urban rail rail_electric rail_fast ship" speed="5.12" length="3.07" shape="522.30,1069.46 522.46,1066.78 522.74,1066.51"/>
    </edge>
    <edge id=":10002075855_4" function="internal">
        <lane id=":10002075855_4_0" index="0" disallow="tram rail_urban rail rail_electric rail_fast ship" speed="5.12" length="6.19" shape="522.74,1066.51 523.31,1065.94 524.83,1066.92 527.02,1069.74"/>
    </edge>
    <edge id=":10002075855_2" function="internal">
        <lane id=":10002075855_2_0" index="0" disallow="tram rail_urban rail rail_electric rail_fast ship" speed="13.89" length="5.92" shape="524.52,1064.41 525.13,1066.05 525.56,1067.19 526.08,1068.26 527.02,1069.74"/>
    </edge>
    <edge id=":10002075855_3" function="internal">
        <lane id=":10002075855_3_0" index="0" disallow="tram rail_urban rail rail_electric rail_fast ship" speed="3.65" length="1.44" shape="524.52,1064.41 524.21,1065.82"/>
    </edge>
    <edge id=":10002075855_5" function="internal">
        <lane id=":10002075855_5_0" index="0" disallow="tram rail_urban rail rail_electric rail_fast ship" speed="3.65" length="3.23" shape="524.21,1065.82 523.62,1066.48 522.73,1066.41 521.54,1065.59"/>
    </edge>
    <edge id=":10002075857_0" function="internal">
        <lane id=":10002075857_0_0" index="0" disallow="tram rail_urban rail rail_electric rail_fast ship" speed="13.89" length="6.02" shape="539.83,1098.29 538.55,1097.07 537.85,1096.02 537.14,1095.02 535.78,1093.90"/>
    </edge>
    <edge id=":10002075857_1" function="internal">
        <lane id=":10002075857_1_0" index="0" disallow="tram rail_urban rail rail_electric rail_fast ship" speed="3.65" length="1.44" shape="539.83,1098.29 539.36,1096.93"/>
    </edge>
    <edge id=":10002075857_4" function="internal">
        <lane id=":10002075857_4_0" index="0" disallow="tram rail_urban rail rail_electric rail_fast ship" speed="3.65" length="3.23" shape="539.36,1096.93 539.53,1096.05 540.33,1095.66 541.77,1095.75"/>
    </edge>
    <edge id=":10002075857_2" function="internal">
        <lane id=":10002075857_2_0" index="0" disallow="tram rail_urban rail rail_electric rail_fast ship" speed="12.17" length="5.48" shape="538.70,1091.33 539.37,1092.81 539.87,1093.84 540.55,1094.71 541.77,1095.75"/>
    </edge>
    <edge id=":10002075857_3" function="internal">
        <lane id=":10002075857_3_0" index="0" disallow="tram rail_urban rail rail_electric rail_fast ship" speed="4.86" length="2.95" shape="538.70,1091.33 539.68,1093.91 539.66,1094.10"/>
    </edge>
    <edge id=":10002075857_5" function="internal">
        <lane id=":10002075857_5_0" index="0" disallow="tram rail_urban rail rail_electric rail_fast ship" speed="4.86" length="5.17" shape="539.66,1094.10 539.52,1095.20 538.22,1095.20 535.78,1093.90"/>
    </edge>
    <edge id=":10981112633_0" function="internal">
        <lane id=":10981112633_0_0" index="0" allow="pedestrian delivery bicycle" speed="3.65" length="4.67" shape="477.92,647.44 479.34,647.23 480.17,647.55 480.41,648.42 480.06,649.81"/>
    </edge>
    <edge id=":10981112666_0" function="internal">
        <lane id=":10981112666_0_0" index="0" allow="pedestrian delivery bicycle" speed="5.56" length="5.00" shape="510.95,754.50 507.37,751.00"/>
    </edge>
    <edge id=":10981112666_1" function="internal">
        <lane id=":10981112666_1_0" index="0" allow="pedestrian delivery bicycle" speed="3.65" length="1.44" shape="510.95,754.50 510.65,753.09"/>
    </edge>
    <edge id=":10981112666_4" function="internal">
        <lane id=":10981112666_4_0" index="0" allow="pedestrian delivery bicycle" speed="3.65" length="3.23" shape="510.65,753.09 510.92,752.24 511.77,751.94 513.18,752.21"/>
    </edge>
    <edge id=":10981112666_2" function="internal">
        <lane id=":10981112666_2_0" index="0" allow="pedestrian delivery bicycle" speed="5.56" length="5.00" shape="509.61,748.72 513.18,752.21"/>
    </edge>
    <edge id=":10981112666_3" function="internal">
        <lane id=":10981112666_3_0" index="0" allow="pedestrian delivery bicycle" speed="3.65" length="1.44" shape="509.61,748.72 509.91,750.13"/>
    </edge>
    <edge id=":10981112666_5" function="internal">
        <lane id=":10981112666_5_0" index="0" allow="pedestrian delivery bicycle" speed="3.65" length="3.23" shape="509.91,750.13 509.63,750.98 508.79,751.27 507.37,751.00"/>
    </edge>
    <edge id=":10981112997_0" function="internal">
        <lane id=":10981112997_0_0" index="0" allow="pedestrian delivery bicycle" speed="5.56" length="9.40" shape="418.72,708.78 411.94,715.30"/>
    </edge>
    <edge id=":10981112997_1" function="internal">
        <lane id=":10981112997_1_0" index="0" allow="pedestrian delivery bicycle" speed="5.56" length="10.17" shape="418.72,708.78 416.49,710.38 414.25,710.89 412.01,710.30 409.76,708.61"/>
    </edge>
    <edge id=":10981112997_2" function="internal">
        <lane id=":10981112997_2_0" index="0" allow="pedestrian delivery bicycle" speed="3.65" length="4.67" shape="418.72,708.78 417.30,709.04 416.46,708.74 416.19,707.89 416.50,706.48"/>
    </edge>
    <edge id=":10981112997_3" function="internal">
        <lane id=":10981112997_3_0" index="0" allow="pedestrian delivery bicycle" speed="5.12" length="5.09" shape="412.01,706.34 413.15,707.20 414.27,707.51 415.39,707.27 416.50,706.48"/>
    </edge>
    <edge id=":10981112997_4" function="internal">
        <lane id=":10981112997_4_0" index="0" allow="pedestrian delivery bicycle" speed="5.56" length="10.27" shape="412.01,706.34 413.71,708.59 414.27,710.84 413.68,713.08 411.94,715.30"/>
    </edge>
    <edge id=":10981112997_5" function="internal">
        <lane id=":10981112997_5_0" index="0" allow="pedestrian delivery bicycle" speed="3.65" length="4.67" shape="412.01,706.34 412.30,707.75 412.02,708.60 411.17,708.89 409.76,708.61"/>
    </edge>
    <edge id=":10981112997_6" function="internal">
        <lane id=":10981112997_6_0" index="0" allow="pedestrian delivery bicycle" speed="5.02" length="5.03" shape="409.73,713.00 410.57,711.91 410.86,710.81 410.59,709.72 409.76,708.61"/>
    </edge>
    <edge id=":10981112997_7" function="internal">
        <lane id=":10981112997_7_0" index="0" allow="pedestrian delivery bicycle" speed="5.56" length="9.40" shape="409.73,713.00 416.50,706.48"/>
    </edge>
    <edge id=":10981112997_8" function="internal">
        <lane id=":10981112997_8_0" index="0" allow="pedestrian delivery bicycle" speed="3.65" length="4.67" shape="409.73,713.00 411.14,712.74 411.99,713.04 412.25,713.89 411.94,715.30"/>
    </edge>
    <edge id=":10981112999_0" function="internal">
        <lane id=":10981112999_0_0" index="0" allow="pedestrian delivery bicycle" speed="3.65" length="4.67" shape="402.60,692.21 404.01,691.91 404.86,692.18 405.16,693.02 404.90,694.44"/>
    </edge>
    <edge id=":11025314438_0" function="internal">
        <lane id=":11025314438_0_0" index="0" allow="bicycle" speed="4.46" length="4.01" width="2.00" shape="303.73,617.03 303.12,616.10 302.37,615.57 301.47,615.46 300.43,615.74"/>
    </edge>
    <edge id=":11025314438_1" function="internal">
        <lane id=":11025314438_1_0" index="0" allow="bicycle" speed="5.56" length="9.44" width="2.00" shape="303.73,617.03 299.97,608.37"/>
    </edge>
    <edge id=":11025314438_2" function="internal">
        <lane id=":11025314438_2_0" index="0" allow="bicycle" speed="5.56" length="7.47" width="2.00" shape="303.73,617.03 302.54,614.25 301.92,612.16 301.87,610.77 302.39,610.06"/>
    </edge>
    <edge id=":11025314438_3" function="internal">
        <lane id=":11025314438_3_0" index="0" allow="bicycle" speed="2.89" length="2.92" width="2.00" shape="303.73,617.03 303.89,616.14 304.25,615.71 304.81,615.74 305.56,616.23"/>
    </edge>
    <edge id=":11025314438_4" function="internal">
        <lane id=":11025314438_4_0" index="0" allow="bicycle" speed="3.87" length="2.56" width="2.00" shape="304.19,614.08 305.56,616.23"/>
    </edge>
    <edge id=":11025314438_5" function="internal">
        <lane id=":11025314438_5_0" index="0" allow="pedestrian motorcycle moped bicycle" speed="5.56" length="4.11" shape="303.94,613.53 300.19,615.20"/>
    </edge>
    <edge id=":11025314438_6" function="internal">
        <lane id=":11025314438_6_0" index="0" allow="bicycle" speed="5.53" length="6.28" width="2.00" shape="303.70,612.98 302.92,612.94 302.04,612.15 301.06,610.63 299.97,608.37"/>
    </edge>
    <edge id=":11025314438_7" function="internal">
        <lane id=":11025314438_7_0" index="0" allow="pedestrian motorcycle moped bicycle" speed="3.65" length="4.67" shape="303.94,613.53 302.52,613.29 301.83,612.72 301.87,611.83 302.64,610.61"/>
    </edge>
    <edge id=":11025314438_8" function="internal">
        <lane id=":11025314438_8_0" index="0" allow="bicycle" speed="3.66" length="2.56" width="2.00" shape="301.80,607.57 302.39,610.06"/>
    </edge>
    <edge id=":11025314438_9" function="internal">
        <lane id=":11025314438_9_0" index="0" allow="bicycle" speed="5.56" length="9.44" width="2.00" shape="301.80,607.57 305.56,616.23"/>
    </edge>
    <edge id=":11025314438_10" function="internal">
        <lane id=":11025314438_10_0" index="0" allow="bicycle" speed="5.56" length="9.31" width="2.00" shape="301.80,607.57 302.75,610.46 302.84,612.79 302.06,614.55 300.43,615.74"/>
    </edge>
    <edge id=":11025314438_11" function="internal">
        <lane id=":11025314438_11_0" index="0" allow="bicycle" speed="2.89" length="2.92" width="2.00" shape="301.80,607.57 301.64,608.46 301.28,608.89 300.72,608.86 299.97,608.37"/>
    </edge>
    <edge id=":11025314438_12" function="internal">
        <lane id=":11025314438_12_0" index="0" allow="bicycle" speed="4.66" length="4.10" width="2.00" shape="298.65,611.72 299.60,611.13 300.14,610.37 300.26,609.45 299.97,608.37"/>
    </edge>
    <edge id=":11025314438_13" function="internal">
        <lane id=":11025314438_13_0" index="0" allow="pedestrian motorcycle moped bicycle" speed="5.56" length="4.10" shape="298.89,612.27 302.64,610.61"/>
    </edge>
    <edge id=":11025314438_14" function="internal">
        <lane id=":11025314438_14_0" index="0" allow="bicycle" speed="5.56" length="8.21" width="2.00" shape="299.14,612.82 301.03,612.37 302.73,612.79 304.24,614.08 305.56,616.23"/>
    </edge>
    <edge id=":11025314438_15" function="internal">
        <lane id=":11025314438_15_0" index="0" allow="pedestrian motorcycle moped bicycle" speed="3.65" length="4.67" shape="298.89,612.27 300.31,612.52 301.00,613.09 300.96,613.98 300.19,615.20"/>
    </edge>
    <edge id=":11025314451_0" function="internal">
        <lane id=":11025314451_0_0" index="0" allow="pedestrian motorcycle moped bicycle" speed="5.78" length="7.18" shape="474.07,962.49 472.84,960.33 471.56,959.00 470.23,958.51 468.85,958.84"/>
    </edge>
    <edge id=":11025314451_1" function="internal">
        <lane id=":11025314451_1_0" index="0" disallow="tram rail_urban rail rail_electric rail_fast ship" speed="13.89" length="14.41" shape="474.07,962.49 467.98,949.44"/>
    </edge>
    <edge id=":11025314451_2" function="internal">
        <lane id=":11025314451_2_0" index="0" disallow="tram rail_urban rail rail_electric rail_fast ship" speed="3.65" length="1.44" shape="474.07,962.49 474.29,961.07"/>
    </edge>
    <edge id=":11025314451_9" function="internal">
        <lane id=":11025314451_9_0" index="0" disallow="tram rail_urban rail rail_electric rail_fast ship" speed="3.65" length="3.23" shape="474.29,961.07 474.84,960.37 475.74,960.39 476.97,961.14"/>
    </edge>
    <edge id=":11025314451_3" function="internal">
        <lane id=":11025314451_3_0" index="0" disallow="tram rail_urban rail rail_electric rail_fast ship" speed="13.89" length="14.41" shape="470.88,948.08 476.97,961.14"/>
    </edge>
    <edge id=":11025314451_4" function="internal">
        <lane id=":11025314451_4_0" index="0" allow="pedestrian motorcycle moped bicycle" speed="7.62" length="4.45" shape="470.88,948.08 472.11,951.67 472.13,952.33"/>
    </edge>
    <edge id=":11025314451_5" function="internal">
        <lane id=":11025314451_5_0" index="0" disallow="tram rail_urban rail rail_electric rail_fast ship" speed="3.65" length="1.44" shape="470.88,948.08 470.66,949.51"/>
    </edge>
    <edge id=":11025314451_10" function="internal">
        <lane id=":11025314451_10_0" index="0" allow="pedestrian motorcycle moped bicycle" speed="7.62" length="7.83" shape="472.13,952.33 472.18,954.65 471.09,957.04 468.85,958.84"/>
    </edge>
    <edge id=":11025314451_11" function="internal">
        <lane id=":11025314451_11_0" index="0" disallow="tram rail_urban rail rail_electric rail_fast ship" speed="3.65" length="3.23" shape="470.66,949.51 470.11,950.21 469.21,950.19 467.98,949.44"/>
    </edge>
    <edge id=":11025314451_6" function="internal">
        <lane id=":11025314451_6_0" index="0" allow="pedestrian motorcycle moped bicycle" speed="6.04" length="7.34" shape="467.35,956.01 468.50,955.01 468.99,953.58 468.82,951.72 467.98,949.44"/>
    </edge>
    <edge id=":11025314451_7" function="internal">
        <lane id=":11025314451_7_0" index="0" allow="pedestrian motorcycle moped bicycle" speed="7.41" length="12.48" shape="467.35,956.01 470.12,955.18 472.65,955.76 474.93,957.74 476.97,961.14"/>
    </edge>
    <edge id=":11025314451_8" function="internal">
        <lane id=":11025314451_8_0" index="0" allow="pedestrian motorcycle moped bicycle" speed="3.65" length="4.67" shape="467.35,956.01 468.78,956.16 469.51,956.68 469.53,957.57 468.85,958.84"/>
    </edge>
    <edge id=":11025314452_0" function="internal">
        <lane id=":11025314452_0_0" index="0" allow="bicycle" speed="4.45" length="4.05" width="2.00" shape="468.00,962.73 467.39,961.81 466.63,961.30 465.71,961.22 464.65,961.54"/>
    </edge>
    <edge id=":11025314452_1" function="internal">
        <lane id=":11025314452_1_0" index="0" allow="bicycle" speed="5.56" length="9.49" width="2.00" shape="468.00,962.73 463.95,954.15"/>
    </edge>
    <edge id=":11025314452_2" function="internal">
        <lane id=":11025314452_2_0" index="0" allow="bicycle" speed="5.56" length="7.67" width="2.00" shape="468.00,962.73 466.83,959.96 466.26,957.85 466.28,956.38 466.89,955.57"/>
    </edge>
    <edge id=":11025314452_3" function="internal">
        <lane id=":11025314452_3_0" index="0" allow="bicycle" speed="2.89" length="2.92" width="2.00" shape="468.00,962.73 468.13,961.84 468.48,961.40 469.03,961.41 469.81,961.88"/>
    </edge>
    <edge id=":11025314452_4" function="internal">
        <lane id=":11025314452_4_0" index="0" allow="bicycle" speed="4.09" length="2.83" width="2.00" shape="468.95,959.46 468.65,959.91 468.89,960.51 469.37,961.18 469.81,961.88"/>
    </edge>
    <edge id=":11025314452_5" function="internal">
        <lane id=":11025314452_5_0" index="0" allow="pedestrian motorcycle moped bicycle" speed="5.56" length="4.75" shape="468.67,958.93 464.39,961.00"/>
    </edge>
    <edge id=":11025314452_6" function="internal">
        <lane id=":11025314452_6_0" index="0" allow="bicycle" speed="5.56" length="6.69" width="2.00" shape="468.39,958.40 467.38,958.52 466.30,957.86 465.16,956.40 463.95,954.15"/>
    </edge>
    <edge id=":11025314452_7" function="internal">
        <lane id=":11025314452_7_0" index="0" allow="pedestrian motorcycle moped bicycle" speed="3.65" length="4.67" shape="468.67,958.93 467.24,958.79 466.51,958.27 466.49,957.37 467.17,956.11"/>
    </edge>
    <edge id=":11025314452_8" function="internal">
        <lane id=":11025314452_8_0" index="0" allow="bicycle" speed="3.78" length="2.84" width="2.00" shape="465.75,953.30 465.99,954.10 466.15,954.95 466.40,955.54 466.89,955.57"/>
    </edge>
    <edge id=":11025314452_9" function="internal">
        <lane id=":11025314452_9_0" index="0" allow="bicycle" speed="5.56" length="9.49" width="2.00" shape="465.75,953.30 469.81,961.88"/>
    </edge>
    <edge id=":11025314452_10" function="internal">
        <lane id=":11025314452_10_0" index="0" allow="bicycle" speed="5.56" length="9.37" width="2.00" shape="465.75,953.30 466.81,956.19 466.97,958.52 466.25,960.31 464.65,961.54"/>
    </edge>
    <edge id=":11025314452_11" function="internal">
        <lane id=":11025314452_11_0" index="0" allow="bicycle" speed="2.89" length="2.92" width="2.00" shape="465.75,953.30 465.62,954.19 465.28,954.63 464.72,954.62 463.95,954.15"/>
    </edge>
    <edge id=":11025314452_12" function="internal">
        <lane id=":11025314452_12_0" index="0" allow="bicycle" speed="4.65" length="4.10" width="2.00" shape="462.78,957.56 463.71,956.95 464.21,956.17 464.29,955.24 463.95,954.15"/>
    </edge>
    <edge id=":11025314452_13" function="internal">
        <lane id=":11025314452_13_0" index="0" allow="pedestrian motorcycle moped bicycle" speed="5.56" length="4.59" shape="463.04,958.10 467.17,956.11"/>
    </edge>
    <edge id=":11025314452_14" function="internal">
        <lane id=":11025314452_14_0" index="0" allow="bicycle" speed="5.56" length="8.25" width="2.00" shape="463.29,958.64 465.23,958.13 466.96,958.50 468.49,959.74 469.81,961.88"/>
    </edge>
    <edge id=":11025314452_15" function="internal">
        <lane id=":11025314452_15_0" index="0" allow="pedestrian motorcycle moped bicycle" speed="3.65" length="4.67" shape="463.04,958.10 464.46,958.32 465.16,958.87 465.14,959.77 464.39,961.00"/>
    </edge>
    <edge id=":11025314458_0" function="internal">
        <lane id=":11025314458_0_0" index="0" allow="pedestrian motorcycle moped bicycle" speed="3.65" length="4.67" shape="297.11,1011.48 295.78,1010.93 295.23,1010.23 295.46,1009.36 296.48,1008.34"/>
    </edge>
    <edge id=":11350116026_0" function="internal">
        <lane id=":11350116026_0_0" index="0" disallow="tram rail_urban rail rail_electric rail_fast ship" speed="3.65" length="4.67" shape="385.94,38.20 385.85,36.76 386.24,35.95 387.12,35.79 388.48,36.26"/>
    </edge>
    <edge id=":11354899403_0" function="internal">
        <lane id=":11354899403_0_0" index="0" disallow="tram rail_urban rail rail_electric rail_fast ship" speed="13.89" length="0.10" shape="573.02,450.23 573.02,450.23"/>
    </edge>
    <edge id=":11354899403_1" function="internal">
        <lane id=":11354899403_1_0" index="0" disallow="tram rail_urban rail rail_electric rail_fast ship" speed="13.89" length="0.10" shape="570.79,447.93 570.79,447.93"/>
    </edge>
    <edge id=":1443502559_0" function="internal">
        <lane id=":1443502559_0_0" index="0" allow="bicycle" speed="2.89" length="2.92" width="2.00" shape="579.46,427.46 580.35,427.31 580.87,427.50 581.04,428.03 580.84,428.91"/>
    </edge>
    <edge id=":1443502568_0" function="internal">
        <lane id=":1443502568_0_0" index="0" allow="bicycle" speed="5.56" length="5.80" width="2.00" shape="514.92,492.29 510.76,496.33"/>
    </edge>
    <edge id=":1443502568_1" function="internal">
        <lane id=":1443502568_1_0" index="0" allow="bicycle" speed="2.89" length="2.92" width="2.00" shape="514.92,492.29 514.03,492.45 513.50,492.27 513.33,491.73 513.52,490.85"/>
    </edge>
    <edge id=":1443502568_2" function="internal">
        <lane id=":1443502568_2_0" index="0" allow="bicycle" speed="5.56" length="5.80" width="2.00" shape="509.36,494.90 513.52,490.85"/>
    </edge>
    <edge id=":1443502568_3" function="internal">
        <lane id=":1443502568_3_0" index="0" allow="bicycle" speed="2.89" length="2.92" width="2.00" shape="509.36,494.90 510.25,494.73 510.78,494.92 510.94,495.45 510.76,496.33"/>
    </edge>
    <edge id=":1443502568_4" function="internal">