<?xml version='1.0' encoding='UTF-8'?>
<routes xmlns:xsi="http://www.w3.org/2001/XMLSchema-instance" xsi:noNamespaceSchemaLocation="http://sumo.dlr.de/xsd/routes_file.xsd">
    <vehicle id="0" type="vehicle.ford.ambulance" depart="0.00">
        <route edges="-46 -47 34 -39"/>
    </vehicle>

    <vehicle id="1" type="vehicle.ford.ambulance" depart="10.00">
        <route edges="-46 -47 34 -39"/>
    </vehicle>

    <vehicle id="2" type="vehicle.ford.ambulance" depart="20.00">
        <route edges="-46 -47 34 -39"/>
    </vehicle>

    <vehicle id="3" type="vehicle.ford.ambulance" depart="30.00">
        <route edges="-46 -47 34 -39"/>
    </vehicle>
    
</routes>
