<?xml version="1.0" encoding="UTF-8"?>

<!-- generated on 2024-03-14 15:18:54 by 
<configuration xmlns:xsi="http://www.w3.org/2001/XMLSchema-instance" xsi:noNamespaceSchemaLocation="http://sumo.dlr.de/xsd/Configuration.xsd">

    <input>
        <osm-files value="TRUE"/>
    </input>

    <output>
        <opendrive-output value="TRUE"/>
    </output>

    <projection>
        <proj value="+proj=tmerc"/>
    </projection>

    <processing>
        <geometry.remove value="true"/>
        <roundabouts.guess value="true"/>
        <edges.join value="true"/>
    </processing>

    <building_defaults>
        <default.lanewidth value="3.350000"/>
        <default.sidewalk-width value="2.800000"/>
    </building_defaults>

    <tls_building>
        <tls.group-signals value="true"/>
    </tls_building>

    <ramp_guessing>
        <ramps.guess value="true"/>
    </ramp_guessing>

    <edge_removal>
        <keep-edges.by-type value="highway.motorway,highway.motorway_link,highway.trunk,highway.trunk_link,highway.primary,highway.primary_link,highway.secondary,highway.secondary_link,highway.tertiary,highway.tertiary_link,highway.unclassified,highway.residential,"/>
    </edge_removal>

    <junctions>
        <junctions.join value="true"/>
    </junctions>

    <pedestrian>
        <sidewalks.guess value="true"/>
    </pedestrian>

    <formats>
        <osm.sidewalks value="true"/>
        <osm.crossings value="true"/>
    </formats>

    <report>
        <aggregate-warnings value="5"/>
    </report>

</configuration>
-->

<OpenDRIVE>
    <header revMajor="1" revMinor="4" name="" version="1" date="2019-02-18T13:36:12" north="209.3415576931303" south="594.6534494725385" east="209.37500939325187" west="594.6470076286956">
    <geoReference><![CDATA[+proj=tmerc +lat_0=40.62817468487931 +lon_0=-8.6619297665839 +x_0=0 +y_0=0 +k_0=1.0 +ellps=GRS80 +units=m +no_defs]]></geoReference>
    </header>
    <road name="Rua de Santiago" length="66.52693283" id="450" junction="-1">
        <link>
            <predecessor elementType="junction" elementId="1"/>
            <successor elementType="junction" elementId="2"/>
        </link>
        <type s="0" type="town"/>
        <planView>
            <geometry s="0.00000000" x="332.90507007" y="90.22349068" hdg="-0.86982431" length="8.10728071">
                <line/>
            </geometry>
            <geometry s="8.10728071" x="338.13394847" y="84.02777998" hdg="-0.86982431" length="13.88845659">
                <paramPoly3 aU="0.00000000" bU="10.41630840" cU="10.41540613" dU="-6.94378101" aV="0.00000000" bV="0.00000000" cV="0.24041008" dV="-0.12522294" pRange="normalized"/>
            </geometry>
            <geometry s="21.99573729" x="347.17914926" y="73.48869519" hdg="-0.85972927" length="3.85315523">
                <paramPoly3 aU="0.00000000" bU="2.88971041" cU="2.89184639" dU="-1.92869079" aV="0.00000000" bV="-0.00000000" cV="-0.04220093" dV="0.06721664" pRange="normalized"/>
            </geometry>
            <geometry s="25.84889252" x="349.71264736" y="70.58583632" hdg="-0.81914380" length="13.87581177">
                <paramPoly3 aU="0.00000000" bU="10.40678653" cU="10.40629103" dU="-6.93798372" aV="0.00000000" bV="0.00000000" cV="0.22519461" dV="-0.09386228" pRange="normalized"/>
            </geometry>
            <geometry s="39.72470430" x="359.28315938" y="60.53890760" hdg="-0.80292268" length="2.54883159">
                <paramPoly3 aU="0.00000000" bU="1.91089693" cU="1.91870349" dU="-1.28346302" aV="0.00000000" bV="-0.00000000" cV="0.05886867" dV="0.03487602" pRange="normalized"/>
            </geometry>
            <geometry s="42.27353589" x="361.11916351" y="58.77235940" hdg="-0.68629140" length="13.83245889">
                <paramPoly3 aU="0.00000000" bU="10.37016548" cU="10.42747768" dU="-6.97224873" aV="0.00000000" bV="0.00000000" cV="-0.52083767" dV="0.72401631" pRange="normalized"/>
            </geometry>
            <geometry s="56.10599478" x="371.94325623" y="50.16876544" hdg="-0.57707192" length="10.42093805">
                <line/>
            </geometry>
        </planView>
        <elevationProfile>
            <elevation s="0" a="0.00" b="0" c="0" d="0"/>
        </elevationProfile>
        <lateralProfile/>
        <lanes>
            <laneSection s="0">
                <center>
                    <lane id="0" type="none" level="true">
                        <link/>
                        <roadMark sOffset="0" type="solid" weight="standard" color="standard" width="0.13" laneChange="none"/>
                    </lane>
                </center>
                <right>
                    <lane id="-1" type="driving" level="true">
                        <link/>
                        <width sOffset="0" a="3.35" b="0" c="0" d="0"/>
                        <roadMark sOffset="0" type="solid" weight="standard" color="standard" width="0.13" laneChange="none"/>
                        <speed sOffset="0" max="13.89"/>
                    </lane>
                    <lane id="-2" type="sidewalk" level="true">
                        <link/>
                        <width sOffset="0" a="2.80" b="0" c="0" d="0"/>
                        <roadMark sOffset="0" type="solid" weight="standard" color="standard" width="0.13" laneChange="none"/>
                        <speed sOffset="0" max="13.89"/>
                    </lane>
                 </right>
            </laneSection>
        </lanes>
        <objects>
            <object id=":4963498671_c0" type="crosswalk" name="" s="0.00000000" t="0.00000000" hdg="0.86982431">
                <outline id="0" fillType="concrete" outer="true" closed="false" laneType="border">
                    <cornerLocal u="-2.23764198" v="-2.54272656" z="0.00000000" height="0.00000000" id="0"/>
                    <cornerLocal u="2.88260280" v="1.77851092" z="0.00000000" height="0.00000000" id="1"/>
                    <cornerLocal u="2.23764198" v="2.54272656" z="0.00000000" height="0.00000000" id="2"/>
                    <cornerLocal u="-2.88260280" v="-1.77851092" z="0.00000000" height="0.00000000" id="3"/>
                </outline>
            </object>
        </objects>
    </road>
    <road name="Rua de Santiago" length="144.11457655" id="451" junction="-1">
        <link>
            <predecessor elementType="junction" elementId="3"/>
            <successor elementType="junction" elementId="1"/>
        </link>
        <type s="0" type="town"/>
        <planView>
            <geometry s="0.00000000" x="237.24452229" y="203.30150081" hdg="-0.86878803" length="16.47634467">
                <line/>
            </geometry>
            <geometry s="16.47634467" x="247.88416170" y="190.72103949" hdg="-0.86878803" length="13.88886162">
                <paramPoly3 aU="0.00000000" bU="10.41664084" cU="10.41664084" dU="-6.94446166" aV="0.00000000" bV="0.00000000" cV="0.04639101" dV="-0.01546375" pRange="normalized"/>
            </geometry>
            <geometry s="30.36520629" x="256.87651523" y="180.13624586" hdg="-0.86433449" length="43.47859666">
                <line/>
            </geometry>
            <geometry s="73.84380295" x="285.10049362" y="147.06366793" hdg="-0.86433449" length="13.88880061">
                <paramPoly3 aU="0.00000000" bU="10.41658307" cU="10.41658307" dU="-6.94450017" aV="0.00000000" bV="0.00000000" cV="-0.08346479" dV="0.02782204" pRange="normalized"/>
            </geometry>
            <geometry s="87.73260355" x="294.07394697" y="136.46294751" hdg="-0.87234713" length="56.38197300">
                <line/>
            </geometry>
        </planView>
        <elevationProfile>
            <elevation s="0" a="0.00" b="0" c="0" d="0"/>
        </elevationProfile>
        <lateralProfile/>
        <lanes>
            <laneSection s="0">
                <center>
                    <lane id="0" type="none" level="true">
                        <link/>
                        <roadMark sOffset="0" type="solid" weight="standard" color="standard" width="0.13" laneChange="none"/>
                    </lane>
                </center>
                <right>
                    <lane id="-1" type="driving" level="true">
                        <link/>
                        <width sOffset="0" a="3.35" b="0" c="0" d="0"/>
                        <roadMark sOffset="0" type="solid" weight="standard" color="standard" width="0.13" laneChange="none"/>
                        <speed sOffset="0" max="13.89"/>
                    </lane>
                    <lane id="-2" type="sidewalk" level="true">
                        <link/>
                        <width sOffset="0" a="2.80" b="0" c="0" d="0"/>
                        <roadMark sOffset="0" type="solid" weight="standard" color="standard" width="0.13" laneChange="none"/>
                        <speed sOffset="0" max="13.89"/>
                    </lane>
                 </right>
            </laneSection>
        </lanes>
        <objects>
            <object id=":4963498672_c0" type="crosswalk" name="" s="0.00000000" t="0.00000000" hdg="0.86878803">
                <outline id="0" fillType="concrete" outer="true" closed="false" laneType="border">
                    <cornerLocal u="-2.23500579" v="-2.54504403" z="0.00000000" height="0.00000000" id="0"/>
                    <cornerLocal u="2.88075821" v="1.78149717" z="0.00000000" height="0.00000000" id="1"/>
                    <cornerLocal u="2.23500579" v="2.54504403" z="0.00000000" height="0.00000000" id="2"/>
                    <cornerLocal u="-2.88075821" v="-1.78149717" z="0.00000000" height="0.00000000" id="3"/>
                </outline>
            </object>
        </objects>
    </road>
    <road name="Rua Condessa Mumadona Dias" length="65.64914717" id="452" junction="-1">
        <link>
            <predecessor elementType="junction" elementId="4"/>
            <successor elementType="junction" elementId="5"/>
        </link>
        <type s="0" type="town"/>
        <planView>
            <geometry s="0.00000000" x="340.31533613" y="1099.13616473" hdg="2.47757725" length="65.64914717">
                <line/>
            </geometry>
        </planView>
        <elevationProfile>
            <elevation s="0" a="0.00" b="0" c="0" d="0"/>
        </elevationProfile>
        <lateralProfile/>
        <lanes>
            <laneSection s="0">
                <center>
                    <lane id="0" type="none" level="true">
                        <link/>
                        <roadMark sOffset="0" type="solid" weight="standard" color="standard" width="0.13" laneChange="none"/>
                    </lane>
                </center>
                <right>
                    <lane id="-1" type="driving" level="true">
                        <link/>
                        <width sOffset="0" a="3.35" b="0" c="0" d="0"/>
                        <roadMark sOffset="0" type="solid" weight="standard" color="standard" width="0.13" laneChange="none"/>
                        <speed sOffset="0" max="27.78"/>
                    </lane>
                 </right>
            </laneSection>
        </lanes>
        <objects/>
    </road>
    <road name="Rua dos Santos Mￃﾡrtires" length="3.54428184" id="453" junction="-1">
        <link>
            <predecessor elementType="junction" elementId="6"/>
            <successor elementType="junction" elementId="7"/>
        </link>
        <type s="0" type="town"/>
        <planView>
            <geometry s="0.00000000" x="369.90562817" y="1102.80058062" hdg="-2.59156081" length="3.54428184">
                <line/>
            </geometry>
        </planView>
        <elevationProfile>
            <elevation s="0" a="0.00" b="0" c="0" d="0"/>
        </elevationProfile>
        <lateralProfile/>
        <lanes>
            <laneSection s="0">
                <center>
                    <lane id="0" type="none" level="true">
                        <link/>
                        <roadMark sOffset="0" type="solid" weight="standard" color="standard" width="0.13" laneChange="none"/>
                    </lane>
                </center>
                <right>
                    <lane id="-1" type="driving" level="true">
                        <link/>
                        <width sOffset="0" a="3.35" b="0" c="0" d="0"/>
                        <roadMark sOffset="0" type="solid" weight="standard" color="standard" width="0.13" laneChange="none"/>
                        <speed sOffset="0" max="13.89"/>
                    </lane>
                    <lane id="-2" type="sidewalk" level="true">
                        <link/>
                        <width sOffset="0" a="2.80" b="0" c="0" d="0"/>
                        <roadMark sOffset="0" type="solid" weight="standard" color="standard" width="0.13" laneChange="none"/>
                        <speed sOffset="0" max="13.89"/>
                    </lane>
                 </right>
            </laneSection>
        </lanes>
        <objects>
            <object id=":10002075856_c1" type="crosswalk" name="" s="0.00000000" t="0.00000000" hdg="2.59156081">
                <outline id="0" fillType="concrete" outer="true" closed="false" laneType="border">
                    <cornerLocal u="-2.17734709" v="2.59454421" z="0.00000000" height="0.00000000" id="0"/>
                    <cornerLocal u="1.32483921" v="-3.11725858" z="0.00000000" height="0.00000000" id="1"/>
                    <cornerLocal u="2.17734709" v="-2.59454421" z="0.00000000" height="0.00000000" id="2"/>
                    <cornerLocal u="-1.32483921" v="3.11725858" z="0.00000000" height="0.00000000" id="3"/>
                </outline>
            </object>
        </objects>
    </road>
    <road name="Rua dos Santos Mￃﾡrtires" length="139.46450659" id="454" junction="-1">
        <link>
            <predecessor elementType="junction" elementId="8"/>
            <successor elementType="junction" elementId="6"/>
        </link>
        <type s="0" type="town"/>
        <planView>
            <geometry s="0.00000000" x="487.64901996" y="1184.49675115" hdg="-2.52591435" length="1.61323415">
                <line/>
            </geometry>
            <geometry s="1.61323415" x="486.33200480" y="1183.56508840" hdg="-2.52591435" length="13.88983711">
                <paramPoly3 aU="-0.00000000" bU="10.41734575" cU="10.41734575" dU="-6.94510282" aV="0.00000000" bV="0.00000000" cV="0.11337879" dV="-0.03779405" pRange="normalized"/>
            </geometry>
            <geometry s="15.50307125" x="475.03644708" y="1175.48197250" hdg="-2.51503080" length="94.81757471">
                <line/>
            </geometry>
            <geometry s="110.32064596" x="398.22963253" y="1119.88443917" hdg="-2.51503080" length="13.87381867">
                <paramPoly3 aU="-0.00000000" bU="10.40218559" cU="10.40214063" dU="-6.95513463" aV="0.00000000" bV="-0.00000000" cV="-1.12931792" dV="0.37754446" pRange="normalized"/>
            </geometry>
            <geometry s="124.19446463" x="386.57030625" y="1112.37275614" hdg="-2.62349003" length="15.27004196">
                <line/>
            </geometry>
        </planView>
        <elevationProfile>
            <elevation s="0" a="0.00" b="0" c="0" d="0"/>
        </elevationProfile>
        <lateralProfile/>
        <lanes>
            <laneSection s="0">
                <center>
                    <lane id="0" type="none" level="true">
                        <link/>
                        <roadMark sOffset="0" type="solid" weight="standard" color="standard" width="0.13" laneChange="none"/>
                    </lane>
                </center>
                <right>
                    <lane id="-1" type="driving" level="true">
                        <link/>
                        <width sOffset="0" a="3.35" b="0" c="0" d="0"/>
                        <roadMark sOffset="0" type="solid" weight="standard" color="standard" width="0.13" laneChange="none"/>
                        <speed sOffset="0" max="13.89"/>
                    </lane>
                    <lane id="-2" type="sidewalk" level="true">
                        <link/>
                        <width sOffset="0" a="2.80" b="0" c="0" d="0"/>
                        <roadMark sOffset="0" type="solid" weight="standard" color="standard" width="0.13" laneChange="none"/>
                        <speed sOffset="0" max="13.89"/>
                    </lane>
                 </right>
            </laneSection>
        </lanes>
        <objects/>
    </road>
    <road name="Rua dos Santos Mￃﾡrtires" length="7.52504046" id="455" junction="-1">
        <link>
            <predecessor elementType="junction" elementId="9"/>
            <successor elementType="junction" elementId="8"/>
        </link>
        <type s="0" type="town"/>
        <planView>
            <geometry s="0.00000000" x="494.92766636" y="1188.45145346" hdg="-2.64955398" length="7.52504046">
                <line/>
            </geometry>
        </planView>
        <elevationProfile>
            <elevation s="0" a="0.00" b="0" c="0" d="0"/>
        </elevationProfile>
        <lateralProfile/>
        <lanes>
            <laneSection s="0">
                <center>
                    <lane id="0" type="none" level="true">
                        <link/>
                        <roadMark sOffset="0" type="solid" weight="standard" color="standard" width="0.13" laneChange="none"/>
                    </lane>
                </center>
                <right>
                    <lane id="-1" type="driving" level="true">
                        <link/>
                        <width sOffset="0" a="3.35" b="0" c="0" d="0"/>
                        <roadMark sOffset="0" type="solid" weight="standard" color="standard" width="0.13" laneChange="none"/>
                        <speed sOffset="0" max="13.89"/>
                    </lane>
                    <lane id="-2" type="sidewalk" level="true">
                        <link/>
                        <width sOffset="0" a="2.80" b="0" c="0" d="0"/>
                        <roadMark sOffset="0" type="solid" weight="standard" color="standard" width="0.13" laneChange="none"/>
                        <speed sOffset="0" max="13.89"/>
                    </lane>
                 </right>
            </laneSection>
        </lanes>
        <objects/>
    </road>
    <road name="Rua da Pega" length="106.47717521" id="456" junction="-1">
        <link>
            <predecessor elementType="junction" elementId="10"/>
            <successor elementType="junction" elementId="11"/>
        </link>
        <type s="0" type="town"/>
        <planView>
            <geometry s="0.00000000" x="163.91536217" y="768.65545783" hdg="1.02050582" length="0.19999697">
                <line/>
            </geometry>
            <geometry s="0.19999697" x="164.01994755" y="768.82592977" hdg="1.02050582" length="6.84903026">
                <paramPoly3 aU="0.00000000" bU="5.13676583" cU="5.13651265" dU="-3.42436990" aV="0.00000000" bV="0.00000000" cV="0.08833434" dV="-0.04907463" pRange="normalized"/>
            </geometry>
            <geometry s="7.04902723" x="167.56801676" y="774.68428235" hdg="1.02623802" length="99.42814799">
                <line/>
            </geometry>
        </planView>
        <elevationProfile>
            <elevation s="0" a="0.00" b="0" c="0" d="0"/>
        </elevationProfile>
        <lateralProfile/>
        <lanes>
            <laneSection s="0">
                <center>
                    <lane id="0" type="none" level="true">
                        <link/>
                        <roadMark sOffset="0" type="solid" weight="standard" color="standard" width="0.13" laneChange="none"/>
                    </lane>
                </center>
                <right>
                    <lane id="-1" type="driving" level="true">
                        <link/>
                        <width sOffset="0" a="3.35" b="0" c="0" d="0"/>
                        <roadMark sOffset="0" type="solid" weight="standard" color="standard" width="0.13" laneChange="none"/>
                        <speed sOffset="0" max="13.89"/>
                    </lane>
                    <lane id="-2" type="sidewalk" level="true">
                        <link/>
                        <width sOffset="0" a="2.80" b="0" c="0" d="0"/>
                        <roadMark sOffset="0" type="solid" weight="standard" color="standard" width="0.13" laneChange="none"/>
                        <speed sOffset="0" max="13.89"/>
                    </lane>
                 </right>
            </laneSection>
        </lanes>
        <objects/>
    </road>
    <road name="Rua da Pega" length="134.73790219" id="457" junction="-1">
        <link>
            <predecessor elementType="junction" elementId="12"/>
            <successor elementType="junction" elementId="10"/>
        </link>
        <type s="0" type="town"/>
        <planView>
            <geometry s="0.00000000" x="90.81506889" y="650.73694619" hdg="1.01586623" length="134.73790219">
                <line/>
            </geometry>
        </planView>
        <elevationProfile>
            <elevation s="0" a="0.00" b="0" c="0" d="0"/>
        </elevationProfile>
        <lateralProfile/>
        <lanes>
            <laneSection s="0">
                <center>
                    <lane id="0" type="none" level="true">
                        <link/>
                        <roadMark sOffset="0" type="solid" weight="standard" color="standard" width="0.13" laneChange="none"/>
                    </lane>
                </center>
                <right>
                    <lane id="-1" type="driving" level="true">
                        <link/>
                        <width sOffset="0" a="3.35" b="0" c="0" d="0"/>
                        <roadMark sOffset="0" type="solid" weight="standard" color="standard" width="0.13" laneChange="none"/>
                        <speed sOffset="0" max="13.89"/>
                    </lane>
                    <lane id="-2" type="sidewalk" level="true">
                        <link/>
                        <width sOffset="0" a="2.80" b="0" c="0" d="0"/>
                        <roadMark sOffset="0" type="solid" weight="standard" color="standard" width="0.13" laneChange="none"/>
                        <speed sOffset="0" max="13.89"/>
                    </lane>
                 </right>
            </laneSection>
        </lanes>
        <objects>
            <object id=":3631879520_c0" type="crosswalk" name="" s="0.00000000" t="0.00000000" hdg="-1.01586623">
                <outline id="0" fillType="concrete" outer="true" closed="false" laneType="border">
                    <cornerLocal u="3.11073180" v="-1.34009240" z="0.00000000" height="0.00000000" id="0"/>
                    <cornerLocal u="-2.58384791" v="2.19002967" z="0.00000000" height="0.00000000" id="1"/>
                    <cornerLocal u="-3.11073180" v="1.34009240" z="0.00000000" height="0.00000000" id="2"/>
                    <cornerLocal u="2.58384791" v="-2.19002967" z="0.00000000" height="0.00000000" id="3"/>
                </outline>
            </object>
        </objects>
    </road>
    <road name="Rua da Pega" length="186.02183280" id="458" junction="-1">
        <link>
            <predecessor elementType="junction" elementId="13"/>
            <successor elementType="junction" elementId="12"/>
        </link>
        <type s="0" type="town"/>
        <planView>
            <geometry s="0.00000000" x="11.74003585" y="478.23333006" hdg="1.16357381" length="104.99066029">
                <line/>
            </geometry>
            <geometry s="104.99066029" x="53.32268960" y="574.63831778" hdg="1.16357381" length="13.88995843">
                <paramPoly3 aU="0.00000000" bU="10.41746064" cU="10.41746064" dU="-6.94502624" aV="0.00000000" bV="-0.00000000" cV="-0.05727611" dV="0.01909218" pRange="normalized"/>
            </geometry>
            <geometry s="118.88061872" x="58.85898983" y="587.37723538" hdg="1.15807574" length="43.89515668">
                <line/>
            </geometry>
            <geometry s="162.77577541" x="76.46546697" y="627.58664650" hdg="1.15807574" length="11.22668278">
                <paramPoly3 aU="0.00000000" bU="8.41312656" cU="8.15879514" dU="-5.46750169" aV="0.00000000" bV="-0.00000000" cV="-3.57402467" dV="1.98524866" pRange="normalized"/>
            </geometry>
            <geometry s="174.00245818" x="82.37485390" y="637.12139868" hdg="1.01587759" length="12.01937462">
                <line/>
            </geometry>
        </planView>
        <elevationProfile>
            <elevation s="0" a="0.00" b="0" c="0" d="0"/>
        </elevationProfile>
        <lateralProfile/>
        <lanes>
            <laneSection s="0">
                <center>
                    <lane id="0" type="none" level="true">
                        <link/>
                        <roadMark sOffset="0" type="solid" weight="standard" color="standard" width="0.13" laneChange="none"/>
                    </lane>
                </center>
                <right>
                    <lane id="-1" type="driving" level="true">
                        <link/>
                        <width sOffset="0" a="3.35" b="0" c="0" d="0"/>
                        <roadMark sOffset="0" type="solid" weight="standard" color="standard" width="0.13" laneChange="none"/>
                        <speed sOffset="0" max="13.89"/>
                    </lane>
                    <lane id="-2" type="sidewalk" level="true">
                        <link/>
                        <width sOffset="0" a="2.80" b="0" c="0" d="0"/>
                        <roadMark sOffset="0" type="solid" weight="standard" color="standard" width="0.13" laneChange="none"/>
                        <speed sOffset="0" max="13.89"/>
                    </lane>
                 </right>
            </laneSection>
        </lanes>
        <objects/>
    </road>
    <road name="Rua da Pega" length="148.78916998" id="459" junction="-1">
        <link>
            <predecessor elementType="junction" elementId="14"/>
            <successor elementType="junction" elementId="13"/>
        </link>
        <type s="0" type="town"/>
        <planView>
            <geometry s="0.00000000" x="20.74274651" y="332.87574677" hdg="1.94187229" length="5.46842275">
                <line/>
            </geometry>
            <geometry s="5.46842275" x="18.75979596" y="337.97197621" hdg="1.94187229" length="13.88709796">
                <paramPoly3 aU="0.00000000" bU="10.41475227" cU="10.41475082" dU="-6.94682941" aV="-0.00000000" bV="0.00000000" cV="-0.47850357" dV="0.15958531" pRange="normalized"/>
            </geometry>
            <geometry s="19.35552072" x="14.02289540" y="351.02540911" hdg="1.89593558" length="27.39507675">
                <line/>
            </geometry>
            <geometry s="46.75059747" x="5.27179168" y="376.98515514" hdg="1.89593558" length="13.73157389">
                <paramPoly3 aU="0.00000000" bU="10.28695702" cU="9.85270394" dU="-6.61660282" aV="-0.00000000" bV="-0.00000000" cV="-5.15890404" dV="2.86674728" pRange="normalized"/>
            </geometry>
            <geometry s="60.48217135" x="3.12403800" y="390.53189785" hdg="1.72818449" length="12.96767499">
                <paramPoly3 aU="0.00000000" bU="9.72460685" cU="9.73867776" dU="-6.49714232" aV="-0.00000000" bV="-0.00000000" cV="0.52924701" dV="-0.52714910" pRange="normalized"/>
            </geometry>
            <geometry s="73.44984634" x="1.08966344" y="403.33745019" hdg="1.67438224" length="13.82329223">
                <paramPoly3 aU="0.00000000" bU="10.36054827" cU="10.43202967" dU="-6.99622837" aV="-0.00000000" bV="-0.00000000" cV="-0.49595818" dV="-0.20340771" pRange="normalized"/>
            </geometry>
            <geometry s="87.27313857" x="0.35872742" y="417.13216318" hdg="1.51912072" length="16.24650111">
                <line/>
            </geometry>
            <geometry s="103.51963968" x="1.19790170" y="433.35697704" hdg="1.51912072" length="13.82994602">
                <paramPoly3 aU="0.00000000" bU="10.36074327" cU="10.36012820" dU="-6.98181045" aV="0.00000000" bV="-0.00000000" cV="-2.17185182" dV="0.73179633" pRange="normalized"/>
            </geometry>
            <geometry s="117.34958570" x="3.34569331" y="447.00331534" hdg="1.31025398" length="31.43958429">
                <line/>
            </geometry>
        </planView>
        <elevationProfile>
            <elevation s="0" a="0.00" b="0" c="0" d="0"/>
        </elevationProfile>
        <lateralProfile/>
        <lanes>
            <laneSection s="0">
                <center>
                    <lane id="0" type="none" level="true">
                        <link/>
                        <roadMark sOffset="0" type="solid" weight="standard" color="standard" width="0.13" laneChange="none"/>
                    </lane>
                </center>
                <right>
                    <lane id="-1" type="driving" level="true">
                        <link/>
                        <width sOffset="0" a="3.35" b="0" c="0" d="0"/>
                        <roadMark sOffset="0" type="solid" weight="standard" color="standard" width="0.13" laneChange="none"/>
                        <speed sOffset="0" max="13.89"/>
                    </lane>
                    <lane id="-2" type="sidewalk" level="true">
                        <link/>
                        <width sOffset="0" a="2.80" b="0" c="0" d="0"/>
                        <roadMark sOffset="0" type="solid" weight="standard" color="standard" width="0.13" laneChange="none"/>
                        <speed sOffset="0" max="13.89"/>
                    </lane>
                 </right>
            </laneSection>
        </lanes>
        <objects/>
    </road>
    <road name="Rua da Pega" length="185.13669865" id="460" junction="-1">
        <link>