<?xml version='1.0' encoding='UTF-8'?>
<!-- generated on 2024-03-13 15:31:27 by Eclipse SUMO netconvert Version 1.12.0
<configuration xmlns:xsi="http://www.w3.org/2001/XMLSchema-instance" xsi:noNamespaceSchemaLocation="http://sumo.dlr.de/xsd/netconvertConfiguration.xsd">

    <input>
        <type-files value="/home/pi-digitaltwin/Desktop/CARLA/Co-Simulation/Sumo/util/data/opendrive_netconvert.typ.xml"/>
        <opendrive-files value="/home/pi-digitaltwin/Desktop/PI_Digital_Twin/Adapters/co_simulation/ruadapega.xodr"/>
    </input>

    <output>
        <output-file value="/tmp/tmpd87qs2re/ruadapega.net.xml"/>
        <output.original-names value="true"/>
    </output>

    <processing>
        <geometry.remove value="true"/>
        <geometry.min-radius.fix value="true"/>
        <geometry.max-grade.fix value="false"/>
    </processing>

    <tls_building>
        <tls.discard-loaded value="true"/>
        <tls.left-green.time value="0"/>
    </tls_building>

    <junctions>
        <rectangular-lane-cut value="true"/>
    </junctions>

    <formats>
        <opendrive.import-all-lanes value="true"/>
        <opendrive.curve-resolution value="1"/>
    </formats>

    <report>
        <aggregate-warnings value="5"/>
    </report>

</configuration>
-->
<net xmlns:xsi="http://www.w3.org/2001/XMLSchema-instance" version="1.9" junctionCornerDetail="5" rectangularLaneCut="true" limitTurnSpeed="5.50" xsi:noNamespaceSchemaLocation="http://sumo.dlr.de/xsd/net_file.xsd">
  <location netOffset="733236.75,-4535482.06" convBoundary="0.00,0.00,494.60,1191.53" origBoundary="0.000000,0.000000,0.000000,0.000000" projParameter="+proj=tmerc          "/>
  <type id="bidirectional" priority="1" speed="1.39" disallow="pedestrian tram rail_urban rail rail_electric rail_fast ship" width="3.65"/>
  <type id="biking" priority="-1" speed="5.56" allow="bicycle" width="1.50"/>
  <type id="border" priority="0" speed="1.39" disallow="all" discard="1" width="0.10"/>
  <type id="driving" priority="1" speed="13.89" disallow="pedestrian tram rail_urban rail rail_electric rail_fast ship" width="3.65"/>
  <type id="entry" priority="1" speed="22.22" disallow="pedestrian tram rail_urban rail rail_electric rail_fast ship" width="3.65"/>
  <type id="exit" priority="1" speed="22.22" disallow="pedestrian tram rail_urban rail rail_electric rail_fast ship" width="3.65"/>
  <type id="median" priority="0" speed="1.39" disallow="all" discard="1" width="0.10"/>
  <type id="mwyEntry" priority="1" speed="22.22" allow="private emergency authority army vip passenger hov taxi bus coach delivery truck trailer motorcycle evehicle custom1 custom2" width="3.65"/>
  <type id="mwyExit" priority="1" speed="22.22" allow="private emergency authority army vip passenger hov taxi bus coach delivery truck trailer motorcycle evehicle custom1 custom2" width="3.65"/>
  <type id="none" priority="0" speed="1.39" disallow="all" discard="1" width="1.00"/>
  <type id="offRamp" priority="1" speed="22.22" allow="private emergency authority army vip passenger hov taxi bus coach delivery truck trailer motorcycle evehicle custom1 custom2" width="3.65"/>
  <type id="onRamp" priority="1" speed="22.22" allow="private emergency authority army vip passenger hov taxi bus coach delivery truck trailer motorcycle evehicle custom1 custom2" width="3.65"/>
  <type id="parking" priority="1" speed="1.39" disallow="pedestrian tram rail_urban rail rail_electric rail_fast ship" width="2.50"/>
  <type id="rail" priority="3" speed="33.33" allow="rail_urban rail rail_electric rail_fast" width="3.65"/>
  <type id="restricted" priority="0" speed="13.89" disallow="all" width="3.65"/>
  <type id="roadWorks" priority="0" speed="1.39" allow="authority" width="3.65"/>
  <type id="shoulder" priority="0" speed="1.39" disallow="all" discard="1" width="1.00"/>
  <type id="sidewalk" priority="-2" speed="2.78" allow="pedestrian" width="2.50"/>
  <type id="special1" priority="1" speed="22.22" allow="custom1" discard="1" width="3.65"/>
  <type id="special2" priority="1" speed="22.22" allow="custom2" discard="1" width="3.65"/>
  <type id="special3" priority="1" speed="22.22" allow="custom1 custom2" discard="1" width="3.65"/>
  <type id="stop" priority="1" speed="13.89" disallow="pedestrian tram rail_urban rail rail_electric rail_fast ship" width="3.65"/>
  <type id="tram" priority="2" speed="13.89" allow="tram" width="3.65"/>
  <edge id=":17_0" function="internal">
    <lane id=":17_0_0" index="0" allow="pedestrian" speed="4.92" length="4.61" width="2.80" shape="150.10,184.89 148.99,184.31 147.94,184.20 146.95,184.56 146.03,185.41">
      <param key="origId" value="600_-2"/>
    </lane>
    <lane id=":17_0_1" index="1" disallow="pedestrian tram rail_urban rail rail_electric rail_fast ship" speed="7.65" length="11.38" width="6.00" shape="152.68,181.33 149.95,179.88 147.36,179.61 144.93,180.52 142.64,182.60">
      <param key="origId" value="600_-1"/>
    </lane>
  </edge>
  <edge id=":17_2" function="internal">
    <lane id=":17_2_0" index="0" disallow="pedestrian tram rail_urban rail rail_electric rail_fast ship" speed="10.91" length="18.88" width="6.00" shape="152.68,181.33 148.65,177.72 146.12,173.82 145.08,169.63 145.54,165.15">
      <param key="origId" value="601_-1"/>
    </lane>
  </edge>
  <edge id=":17_3" function="internal">
    <lane id=":17_3_0" index="0" allow="pedestrian" speed="6.42" length="6.38" width="2.80" shape="155.61,167.78 155.57,168.99 156.09,170.25 157.16,171.56 158.78,172.91">
      <param key="origId" value="602_-2"/>
    </lane>
    <lane id=":17_3_1" index="1" disallow="pedestrian tram rail_urban rail rail_electric rail_fast ship" speed="8.75" length="11.65" width="6.00" shape="151.35,166.67 151.13,169.26 151.87,171.76 153.56,174.17 156.20,176.47">
      <param key="origId" value="602_-1"/>
    </lane>
  </edge>
  <edge id=":17_5" function="internal">
    <lane id=":17_5_0" index="0" disallow="pedestrian tram rail_urban rail rail_electric rail_fast ship" speed="13.89" length="18.42" width="6.00" shape="151.35,166.67 149.84,171.88 148.31,175.31 146.12,178.40 142.64,182.60">
      <param key="origId" value="603_-1"/>
    </lane>
  </edge>
  <edge id=":17_6" function="internal">
    <lane id=":17_6_0" index="0" allow="pedestrian" speed="13.89" length="14.82" width="2.80" shape="134.63,175.96 137.27,172.81 138.95,170.51 140.13,167.95 141.28,164.04">
      <param key="origId" value="604_-2"/>
    </lane>
    <lane id=":17_6_1" index="1" disallow="pedestrian tram rail_urban rail rail_electric rail_fast ship" speed="13.89" length="14.82" width="6.00" shape="138.02,178.77 141.01,175.17 142.91,172.54 144.24,169.61 145.54,165.15">
      <param key="origId" value="604_-1"/>
    </lane>
  </edge>
  <edge id=":17_8" function="internal">
    <lane id=":17_8_0" index="0" disallow="pedestrian tram rail_urban rail rail_electric rail_fast ship" speed="9.97" length="7.82" width="6.00" shape="138.02,178.77 142.16,175.00 144.25,174.23">
      <param key="origId" value="605_-1"/>
    </lane>
  </edge>
  <edge id=":17_9" function="internal">
    <lane id=":17_9_0" index="0" disallow="pedestrian tram rail_urban rail rail_electric rail_fast ship" speed="9.97" length="12.79" width="6.00" shape="144.25,174.23 146.57,173.36 151.25,173.85 156.20,176.47">
      <param key="origId" value="605_-1"/>
    </lane>
  </edge>
  <edge id=":18_0" function="internal">
    <lane id=":18_0_0" index="0" allow="pedestrian" speed="4.76" length="5.95" width="2.80" shape="196.96,138.31 195.69,137.39 194.55,137.34 193.53,138.17 192.64,139.88">
      <param key="origId" value="582_-2"/>
    </lane>
    <lane id=":18_0_1" index="1" disallow="pedestrian tram rail_urban rail rail_electric rail_fast ship" speed="7.62" length="14.62" width="6.00" shape="200.11,135.25 196.93,132.87 193.95,132.49 191.18,134.10 188.60,137.71">
      <param key="origId" value="582_-1"/>
    </lane>
  </edge>
  <edge id=":18_2" function="internal">
    <lane id=":18_2_0" index="0" allow="pedestrian" speed="7.62" length="9.69" width="2.80" shape="202.98,119.88 202.84,121.22 203.56,123.02 205.14,125.28 207.57,128.00">
      <param key="origId" value="583_-2"/>
    </lane>
    <lane id=":18_2_1" index="1" disallow="pedestrian tram rail_urban rail rail_electric rail_fast ship" speed="9.63" length="15.08" width="6.00" shape="199.07,117.87 198.43,120.59 199.11,123.69 201.11,127.18 204.41,131.06">
      <param key="origId" value="583_-1"/>
    </lane>
  </edge>
  <edge id=":18_4" function="internal">
    <lane id=":18_4_0" index="0" disallow="pedestrian tram rail_urban rail rail_electric rail_fast ship" speed="13.89" length="22.43" width="6.00" shape="199.07,117.87 188.60,137.71">
      <param key="origId" value="584_-1"/>
    </lane>
  </edge>
  <edge id=":19_0" function="internal">
    <lane id=":19_0_0" index="0" disallow="pedestrian tram rail_urban rail rail_electric rail_fast ship" speed="5.00" length="8.76" width="6.00" shape="247.53,172.31 248.12,174.94 247.63,176.55 246.06,177.12 243.39,176.65"/>
  </edge>
  <edge id=":2_0" function="internal">
    <lane id=":2_0_0" index="0" allow="pedestrian" speed="4.88" length="4.65" width="2.80" shape="375.26,42.05 376.21,41.21 376.68,40.27 376.66,39.21 376.15,38.05">
      <param key="origId" value="590_-2"/>
    </lane>
    <lane id=":2_0_1" index="1" disallow="pedestrian tram rail_urban rail rail_electric rail_fast ship" speed="7.62" length="11.63" width="6.00" shape="377.66,45.74 380.05,43.65 381.22,41.28 381.17,38.64 379.90,35.73">
      <param key="origId" value="590_-1"/>
    </lane>
  </edge>
  <edge id=":20_0" function="internal">
    <lane id=":20_0_0" index="0" allow="pedestrian" speed="8.55" length="19.70" width="2.80" shape="189.87,55.10 194.53,57.06 196.92,60.28 197.01,64.77 194.83,70.52">
      <param key="origId" value="575_-2"/>
    </lane>
    <lane id=":20_0_1" index="1" disallow="pedestrian tram rail_urban rail rail_electric rail_fast ship" speed="6.91" length="11.23" width="6.00" shape="188.89,59.39 191.29,60.48 192.43,62.36 192.31,65.03 190.93,68.48">
      <param key="origId" value="575_-1"/>
    </lane>
  </edge>
  <edge id=":22_0" function="internal">
    <lane id=":22_0_0" index="0" allow="pedestrian" speed="13.89" length="3.55" width="2.80" shape="340.95,1082.54 340.80,1081.72 340.63,1081.17 340.38,1080.65 339.98,1079.92">
      <param key="origId" value="554_-2"/>
    </lane>
    <lane id=":22_0_1" index="1" disallow="pedestrian tram rail_urban rail rail_electric rail_fast ship" speed="13.89" length="3.55" width="6.00" shape="345.30,1081.88 345.08,1080.63 344.84,1079.80 344.47,1079.01 343.88,1077.88">
      <param key="origId" value="554_-1"/>
    </lane>
  </edge>
  <edge id=":22_2" function="internal">
    <lane id=":22_2_0" index="0" disallow="pedestrian tram rail_urban rail rail_electric rail_fast ship" speed="6.38" length="5.29" width="6.00" shape="345.30,1081.88 345.09,1077.69 345.70,1076.78">
      <param key="origId" value="555_-1"/>
    </lane>
  </edge>
  <edge id=":22_5" function="internal">
    <lane id=":22_5_0" index="0" disallow="pedestrian tram rail_urban rail rail_electric rail_fast ship" speed="6.38" length="8.45" width="6.00" shape="345.70,1076.78 346.14,1076.12 348.45,1077.18 352.01,1080.85">
      <param key="origId" value="555_-1"/>
    </lane>
  </edge>
  <edge id=":22_3" function="internal">
    <lane id=":22_3_0" index="0" allow="pedestrian" speed="13.89" length="5.95" width="2.80" shape="353.11,1073.08 353.75,1074.58 354.06,1075.68 354.47,1076.71 355.38,1078.02">
      <param key="origId" value="556_-2"/>
    </lane>
    <lane id=":22_3_1" index="1" disallow="pedestrian tram rail_urban rail rail_electric rail_fast ship" speed="13.89" length="5.95" width="6.00" shape="349.21,1075.12 349.98,1076.87 350.40,1078.13 350.92,1079.33 352.01,1080.85">
      <param key="origId" value="556_-1"/>
    </lane>
  </edge>
  <edge id=":24_0" function="internal">
    <lane id=":24_0_0" index="0" allow="pedestrian" speed="13.89" length="14.24" width="2.80" shape="165.03,196.41 153.96,187.69">
      <param key="origId" value="585_-2"/>
    </lane>
    <lane id=":24_0_1" index="1" disallow="pedestrian tram rail_urban rail rail_electric rail_fast ship" speed="13.89" length="14.24" width="6.00" shape="167.84,193.03 156.54,184.13">
      <param key="origId" value="585_-1"/>
    </lane>
  </edge>
  <edge id=":24_2" function="internal">
    <lane id=":24_2_0" index="0" disallow="pedestrian tram rail_urban rail rail_electric rail_fast ship" speed="5.00" length="3.39" width="6.00" shape="167.84,193.03 167.07,190.44 167.23,189.77">
      <param key="origId" value="586_-1"/>
    </lane>
  </edge>
  <edge id=":24_8" function="internal">
    <lane id=":24_8_0" index="0" disallow="pedestrian tram rail_urban rail rail_electric rail_fast ship" speed="5.00" length="5.37" width="6.00" shape="167.23,189.77 167.46,188.80 168.99,188.13 171.68,188.42">
      <param key="origId" value="586_-1"/>
    </lane>
  </edge>
  <edge id=":24_3" function="internal">
    <lane id=":24_3_0" index="0" allow="pedestrian" speed="5.95" length="6.37" width="2.80" shape="174.72,179.15 173.86,181.09 173.54,182.72 173.75,184.03 174.50,185.04">
      <param key="origId" value="587_-2"/>
    </lane>
    <lane id=":24_3_1" index="1" disallow="pedestrian tram rail_urban rail rail_electric rail_fast ship" speed="8.36" length="12.44" width="6.00" shape="170.85,177.06 169.41,180.54 169.08,183.58 169.83,186.21 171.68,188.42">
      <param key="origId" value="587_-1"/>
    </lane>
  </edge>
  <edge id=":24_5" function="internal">
    <lane id=":24_5_0" index="0" disallow="pedestrian tram rail_urban rail rail_electric rail_fast ship" speed="8.87" length="18.49" width="6.00" shape="170.85,177.06 167.42,182.21 163.90,185.10 160.27,185.74 156.54,184.13">
      <param key="origId" value="588_-1"/>
    </lane>
  </edge>
  <edge id=":24_6" function="internal">
    <lane id=":24_6_0" index="0" allow="pedestrian" speed="13.89" length="14.94" width="2.80" shape="162.64,175.70 174.50,185.04">
      <param key="origId" value="589_-2"/>
    </lane>
    <lane id=":24_6_1" index="1" disallow="pedestrian tram rail_urban rail rail_electric rail_fast ship" speed="13.89" length="14.94" width="6.00" shape="160.06,179.27 171.68,188.42">
      <param key="origId" value="589_-1"/>
    </lane>
  </edge>
  <edge id=":26_0" function="internal">
    <lane id=":26_0_0" index="0" disallow="pedestrian tram rail_urban rail rail_electric rail_fast ship" speed="5.00" length="8.76" width="6.00" shape="328.04,449.55 330.63,448.79 332.26,449.18 332.93,450.72 332.63,453.41"/>
  </edge>
  <edge id=":30_0" function="internal">
    <lane id=":30_0_0" index="0" disallow="pedestrian tram rail_urban rail rail_electric rail_fast ship" speed="5.00" length="8.76" width="6.00" shape="403.24,696.76 404.02,699.35 403.64,700.98 402.11,701.66 399.42,701.38"/>
  </edge>
  <edge id=":31_0" function="internal">
    <lane id=":31_0_0" index="0" allow="pedestrian" speed="20.84" length="6.24" width="2.80" shape="372.73,1087.87 371.21,1088.69 369.94,1088.88 368.73,1089.14 367.39,1090.15">
      <param key="origId" value="550_-2"/>
    </lane>
    <lane id=":31_0_1" index="1" disallow="pedestrian tram rail_urban rail rail_electric rail_fast ship" speed="20.84" length="6.24" width="6.00" shape="369.98,1084.43 368.31,1085.38 366.93,1085.67 365.62,1086.03 364.14,1087.18">
      <param key="origId" value="550_-1"/>
    </lane>
  </edge>
  <edge id=":31_2" function="internal">
    <lane id=":31_2_0" index="0" disallow="pedestrian tram rail_urban rail rail_electric rail_fast ship" speed="5.00" length="3.50" width="6.00" shape="369.98,1084.43 367.28,1084.67 366.56,1084.34">
      <param key="origId" value="551_-1"/>
    </lane>
  </edge>
  <edge id=":31_6" function="internal">
    <lane id=":31_6_0" index="0" disallow="pedestrian tram rail_urban rail rail_electric rail_fast ship" speed="5.00" length="5.27" width="6.00" shape="366.56,1084.34 365.76,1083.97 365.41,1082.33 366.23,1079.75">
      <param key="origId" value="551_-1"/>
    </lane>
  </edge>
  <edge id=":31_3" function="internal">
    <lane id=":31_3_0" index="0" allow="pedestrian" speed="10.17" length="4.59" width="2.80" shape="360.31,1077.84 361.34,1077.59 362.03,1077.34 362.65,1076.96 363.48,1076.31">
      <param key="origId" value="552_-2"/>
    </lane>
    <lane id=":31_3_1" index="1" disallow="pedestrian tram rail_urban rail rail_electric rail_fast ship" speed="12.83" length="4.59" width="6.00" shape="361.25,1082.13 362.87,1081.75 363.95,1081.37 364.92,1080.77 366.23,1079.75">
      <param key="origId" value="552_-1"/>
    </lane>
  </edge>
  <edge id=":31_5" function="internal">
    <lane id=":31_5_0" index="0" disallow="pedestrian tram rail_urban rail rail_electric rail_fast ship" speed="5.94" length="4.34" width="6.00" shape="361.25,1082.13 364.95,1081.68 365.52,1081.91">
      <param key="origId" value="553_-1"/>
    </lane>
  </edge>
  <edge id=":31_7" function="internal">
    <lane id=":31_7_0" index="0" disallow="pedestrian tram rail_urban rail rail_electric rail_fast ship" speed="5.94" length="6.81" width="6.00" shape="365.52,1081.91 366.66,1082.37 366.39,1084.21 364.14,1087.18">
      <param key="origId" value="553_-1"/>
    </lane>
  </edge>
  <edge id=":32_0" function="internal">
    <lane id=":32_0_0" index="0" allow="pedestrian" speed="6.72" length="15.19" width="2.80" shape="395.67,1050.53 402.31,1049.83 406.09,1051.50 407.04,1055.52 405.13,1061.92">
      <param key="origId" value="597_-2"/>
    </lane>
    <lane id=":32_0_1" index="1" disallow="pedestrian tram rail_urban rail rail_electric rail_fast ship" speed="5.00" length="15.19" width="6.00" shape="398.48,1053.92 401.17,1053.63 402.71,1054.31 403.09,1055.94 402.32,1058.53">
      <param key="origId" value="597_-1"/>
    </lane>
  </edge>
  <edge id=":34_0" function="internal">
    <lane id=":34_0_0" index="0" allow="pedestrian" speed="13.89" length="7.60" width="2.80" shape="145.02,126.58 144.92,124.55 144.75,123.15 144.38,121.81 143.66,119.91">
      <param key="origId" value="571_-2"/>
    </lane>
    <lane id=":34_0_1" index="1" disallow="pedestrian tram rail_urban rail rail_electric rail_fast ship" speed="13.89" length="7.60" width="6.00" shape="149.41,126.39 149.29,123.93 149.09,122.24 148.63,120.60 147.75,118.30">
      <param key="origId" value="571_-1"/>
    </lane>
  </edge>
  <edge id=":34_2" function="internal">
    <lane id=":34_2_0" index="0" allow="pedestrian" speed="6.63" length="6.54" width="2.80" shape="164.07,121.43 162.16,122.51 160.82,123.63 160.03,124.78 159.80,125.97">
      <param key="origId" value="572_-2"/>
    </lane>
    <lane id=":34_2_1" index="1" disallow="pedestrian tram rail_urban rail rail_electric rail_fast ship" speed="8.92" length="11.63" width="6.00" shape="162.14,117.47 159.11,119.28 156.98,121.33 155.75,123.62 155.41,126.15">
      <param key="origId" value="572_-1"/>
    </lane>
  </edge>
  <edge id=":34_4" function="internal">
    <lane id=":34_4_0" index="0" disallow="pedestrian tram rail_urban rail rail_electric rail_fast ship" speed="8.43" length="15.84" width="6.00" shape="162.14,117.47 156.61,119.78 152.37,120.68 149.42,120.19 147.75,118.30">
      <param key="origId" value="573_-1"/>
    </lane>
  </edge>
  <edge id=":34_5" function="internal">
    <lane id=":34_5_0" index="0" allow="pedestrian" speed="13.89" length="11.09" width="2.80" shape="157.43,114.48 158.67,117.75 159.33,120.07 159.63,122.47 159.80,125.97">
      <param key="origId" value="574_-2"/>
    </lane>
    <lane id=":34_5_1" index="1" disallow="pedestrian tram rail_urban rail rail_electric rail_fast ship" speed="13.89" length="11.09" width="6.00" shape="153.34,116.10 154.42,118.96 155.00,120.99 155.26,123.09 155.41,126.15">
      <param key="origId" value="574_-1"/>
    </lane>
  </edge>
  <edge id=":35_0" function="internal">
    <lane id=":35_0_0" index="0" allow="pedestrian" speed="13.89" length="15.97" width="2.80" shape="139.96,110.52 138.31,106.32 137.00,103.49 135.31,100.90 132.48,97.39">
      <param key="origId" value="576_-2"/>
    </lane>
    <lane id=":35_0_1" index="1" disallow="pedestrian tram rail_urban rail rail_electric rail_fast ship" speed="13.89" length="15.97" width="6.00" shape="144.05,108.91 142.24,104.30 140.80,101.20 138.94,98.36 135.82,94.52">
      <param key="origId" value="576_-1"/>
    </lane>
  </edge>
  <edge id=":35_2" function="internal">
    <lane id=":35_2_0" index="0" disallow="pedestrian tram rail_urban rail rail_electric rail_fast ship" speed="13.74" length="4.31" width="6.00" shape="144.05,108.91 144.07,106.54 144.68,104.69">
      <param key="origId" value="577_-1"/>
    </lane>
  </edge>
  <edge id=":35_7" function="internal">
    <lane id=":35_7_0" index="0" disallow="pedestrian tram rail_urban rail rail_electric rail_fast ship" speed="13.74" length="16.41" width="6.00" shape="144.68,104.69 145.37,102.58 147.95,97.05 151.81,89.94">
      <param key="origId" value="577_-1"/>
    </lane>
  </edge>
  <edge id=":35_3" function="internal">
    <lane id=":35_3_0" index="0" allow="pedestrian" speed="4.64" length="5.33" width="2.80" shape="143.76,87.81 144.97,88.91 146.07,89.28 147.08,88.89 147.98,87.77">
      <param key="origId" value="578_-2"/>
    </lane>
    <lane id=":35_3_1" index="1" disallow="pedestrian tram rail_urban rail rail_electric rail_fast ship" speed="7.49" length="14.44" width="6.00" shape="140.40,90.65 143.58,93.52 146.54,94.36 149.28,93.16 151.81,89.94">
      <param key="origId" value="578_-1"/>
    </lane>
  </edge>
  <edge id=":35_5" function="internal">
    <lane id=":35_5_0" index="0" disallow="pedestrian tram rail_urban rail rail_electric rail_fast ship" speed="13.89" length="18.68" width="6.00" shape="140.40,90.65 143.89,94.93 145.99,98.10 147.60,101.56 149.64,106.71">
      <param key="origId" value="579_-1"/>
    </lane>
  </edge>
  <edge id=":35_6" function="internal">
    <lane id=":35_6_0" index="0" disallow="pedestrian tram rail_urban rail rail_electric rail_fast ship" speed="5.00" length="3.50" width="6.00" shape="140.40,90.65 140.71,93.33 140.40,94.06">
      <param key="origId" value="580_-1"/>
    </lane>
  </edge>
  <edge id=":35_8" function="internal">
    <lane id=":35_8_0" index="0" disallow="pedestrian tram rail_urban rail rail_electric rail_fast ship" speed="5.00" length="5.27" width="6.00" shape="140.40,94.06 140.05,94.88 138.42,95.27 135.82,94.52">
      <param key="origId" value="580_-1"/>
    </lane>
  </edge>
  <edge id=":36_0" function="internal">
    <lane id=":36_0_0" index="0" allow="pedestrian" speed="6.72" length="15.19" width="2.80" shape="96.88,62.51 95.78,55.93 97.22,52.05 101.18,50.87 107.68,52.39">
      <param key="origId" value="570_-2"/>
    </lane>
    <lane id=":36_0_1" index="1" disallow="pedestrian tram rail_urban rail rail_electric rail_fast ship" speed="5.00" length="15.19" width="6.00" shape="100.09,59.50 99.64,56.83 100.23,55.26 101.83,54.78 104.47,55.40">
      <param key="origId" value="570_-1"/>
    </lane>
  </edge>
  <edge id=":37_0" function="internal">
    <lane id=":37_0_0" index="0" disallow="pedestrian tram rail_urban rail rail_electric rail_fast ship" speed="7.40" length="3.40" width="6.00" shape="348.14,1094.53 345.22,1092.78">
      <param key="origId" value="545_-1"/>
    </lane>
  </edge>
  <edge id=":37_1" function="internal">
    <lane id=":37_1_0" index="0" disallow="pedestrian tram rail_urban rail rail_electric rail_fast ship" speed="22.72" length="3.20" width="6.00" shape="343.11,1095.19 345.22,1092.78">
      <param key="origId" value="546_-1"/>
    </lane>
  </edge>
  <edge id=":38_0" function="internal">
    <lane id=":38_0_0" index="0" disallow="pedestrian tram rail_urban rail rail_electric rail_fast ship" speed="20.84" length="10.60" width="6.00" shape="345.26,1092.58 345.77,1089.60 345.94,1087.44 345.78,1085.22 345.33,1082.07">
      <param key="origId" value="531_-1"/>
    </lane>
  </edge>
  <edge id=":38_1" function="internal">
    <lane id=":38_1_0" index="0" disallow="pedestrian tram rail_urban rail rail_electric rail_fast ship" speed="8.97" length="10.02" width="6.00" shape="345.26,1092.58 346.05,1089.59 347.19,1087.25 348.65,1085.55 350.45,1084.50">
      <param key="origId" value="532_-1"/>
    </lane>
  </edge>
  <edge id=":39_0" function="internal">
    <lane id=":39_0_0" index="0" disallow="pedestrian tram rail_urban rail rail_electric rail_fast ship" speed="6.40" length="2.43" width="6.00" shape="352.14,1081.01 353.75,1082.83">
      <param key="origId" value="533_-1"/>
    </lane>
  </edge>
  <edge id=":39_1" function="internal">
    <lane id=":39_1_0" index="0" disallow="pedestrian tram rail_urban rail rail_electric rail_fast ship" speed="8.56" length="3.50" width="6.00" shape="350.63,1084.43 353.75,1082.83">
      <param key="origId" value="534_-1"/>
    </lane>
  </edge>
  <edge id=":4_0" function="internal">
    <lane id=":4_0_0" index="0" disallow="pedestrian tram rail_urban rail rail_electric rail_fast ship" speed="27.78" length="4.26" width="6.00" shape="346.76,1099.85 345.74,1100.48 345.24,1101.20 344.81,1102.02 343.94,1102.93">
      <param key="origId" value="547_-1"/>
    </lane>
  </edge>
  <edge id=":4_1" function="internal">
    <lane id=":4_1_0" index="0" disallow="pedestrian tram rail_urban rail rail_electric rail_fast ship" speed="5.83" length="3.41" width="6.00" shape="346.76,1099.85 343.61,1100.75 343.48,1100.72">
      <param key="origId" value="548_-1"/>
    </lane>
  </edge>
  <edge id=":4_4" function="internal">
    <lane id=":4_4_0" index="0" disallow="pedestrian tram rail_urban rail rail_electric rail_fast ship" speed="5.83" length="6.80" width="6.00" shape="343.48,1100.72 341.94,1100.30 341.74,1098.51 343.01,1095.36">
      <param key="origId" value="548_-1"/>
    </lane>
  </edge>
  <edge id=":4_2" function="internal">
    <lane id=":4_2_0" index="0" allow="pedestrian" speed="8.87" length="3.10" width="2.80" shape="337.53,1094.74 338.07,1094.37 338.46,1094.13 338.78,1093.84 339.12,1093.31">
      <param key="origId" value="549_-2"/>
    </lane>
    <lane id=":4_2_1" index="1" disallow="pedestrian tram rail_urban rail rail_electric rail_fast ship" speed="12.12" length="3.10" width="6.00" shape="340.25,1098.21 341.21,1097.49 341.87,1096.98 342.41,1096.37 343.01,1095.36">
      <param key="origId" value="549_-1"/>
    </lane>
  </edge>
  <edge id=":40_0" function="internal">
    <lane id=":40_0_0" index="0" disallow="pedestrian tram rail_urban rail rail_electric rail_fast ship" speed="16.28" length="7.25" width="6.00" shape="353.95,1082.87 356.04,1083.17 357.51,1083.08 358.97,1082.71 361.06,1082.18">
      <param key="origId" value="535_-1"/>
    </lane>
  </edge>
  <edge id=":40_1" function="internal">
    <lane id=":40_1_0" index="0" disallow="pedestrian tram rail_urban rail rail_electric rail_fast ship" speed="7.71" length="6.86" width="6.00" shape="353.95,1082.87 355.69,1083.42 357.13,1084.29 358.25,1085.48 359.06,1086.99">
      <param key="origId" value="536_-1"/>
    </lane>
  </edge>
  <edge id=":41_0" function="internal">
    <lane id=":41_0_0" index="0" disallow="pedestrian tram rail_urban rail rail_electric rail_fast ship" speed="16.43" length="7.25" width="6.00" shape="353.84,1097.89 351.72,1097.95 350.30,1098.29 348.92,1098.90 346.95,1099.78">
      <param key="origId" value="543_-1"/>
    </lane>
  </edge>
  <edge id=":41_1" function="internal">
    <lane id=":41_1_0" index="0" disallow="pedestrian tram rail_urban rail rail_electric rail_fast ship" speed="7.39" length="6.78" width="6.00" shape="353.84,1097.89 351.97,1097.64 350.42,1097.03 349.17,1096.05 348.23,1094.71">
      <param key="origId" value="544_-1"/>
    </lane>
  </edge>
  <edge id=":42_0" function="internal">
    <lane id=":42_0_0" index="0" disallow="pedestrian tram rail_urban rail rail_electric rail_fast ship" speed="9.74" length="4.06" width="6.00" shape="364.01,1087.33 361.05,1090.12">
      <param key="origId" value="537_-1"/>
    </lane>
  </edge>
  <edge id=":42_1" function="internal">
    <lane id=":42_1_0" index="0" disallow="pedestrian tram rail_urban rail rail_electric rail_fast ship" speed="8.19" length="3.52" width="6.00" shape="359.13,1087.18 361.05,1090.12">
      <param key="origId" value="538_-1"/>
    </lane>
  </edge>
  <edge id=":43_0" function="internal">
    <lane id=":43_0_0" index="0" disallow="pedestrian tram rail_urban rail rail_electric rail_fast ship" speed="6.76" length="3.46" width="6.00" shape="361.01,1090.32 360.65,1093.76">
      <param key="origId" value="539_-1"/>
    </lane>
  </edge>
  <edge id=":43_1" function="internal">
    <lane id=":43_1_0" index="0" disallow="pedestrian tram rail_urban rail rail_electric rail_fast ship" speed="7.50" length="6.74" width="6.00" shape="361.01,1090.32 360.37,1092.89 359.76,1094.78 359.18,1095.99 358.62,1096.51">
      <param key="origId" value="540_-1"/>
    </lane>
  </edge>
  <edge id=":44_0" function="internal">
    <lane id=":44_0_0" index="0" disallow="pedestrian tram rail_urban rail rail_electric rail_fast ship" speed="13.65" length="5.80" width="6.00" shape="359.17,1100.33 357.70,1099.42 356.72,1098.66 355.68,1098.13 354.04,1097.89">
      <param key="origId" value="541_-1"/>
    </lane>
  </edge>
  <edge id=":44_1" function="internal">
    <lane id=":44_1_0" index="0" disallow="pedestrian tram rail_urban rail rail_electric rail_fast ship" speed="17.46" length="4.65" width="6.00" shape="358.43,1096.57 357.15,1097.09 356.28,1097.53 355.39,1097.81 354.04,1097.89">
      <param key="origId" value="542_-1"/>
    </lane>
  </edge>
  <edge id=":5_0" function="internal">
    <lane id=":5_0_0" index="0" disallow="pedestrian tram rail_urban rail rail_electric rail_fast ship" speed="5.00" length="8.76" width="6.00" shape="290.14,1145.04 287.44,1145.24 285.93,1144.52 285.59,1142.88 286.44,1140.31"/>
  </edge>
  <edge id=":7_0" function="internal">