<?xml version="1.0" encoding="UTF-8"?>

<!-- generated on 2024-03-13 15:25:13 by 
<configuration xmlns:xsi="http://www.w3.org/2001/XMLSchema-instance" xsi:noNamespaceSchemaLocation="http://sumo.dlr.de/xsd/Configuration.xsd">

    <input>
        <osm-files value="TRUE"/>
    </input>

    <output>
        <opendrive-output value="TRUE"/>
    </output>

    <projection>
        <proj value="+proj=tmerc"/>
    </projection>

    <processing>
        <geometry.remove value="true"/>
        <offset.disable-normalization value="true"/>
        <roundabouts.guess value="true"/>
        <edges.join value="true"/>
    </processing>

    <building_defaults>
        <default.lanewidth value="6.000000"/>
        <default.sidewalk-width value="2.800000"/>
    </building_defaults>

    <tls_building>
        <tls.group-signals value="true"/>
    </tls_building>

    <ramp_guessing>
        <ramps.guess value="true"/>
    </ramp_guessing>

    <edge_removal>
        <keep-edges.by-type value="highway.motorway,highway.motorway_link,highway.trunk,highway.trunk_link,highway.primary,highway.primary_link,highway.secondary,highway.secondary_link,highway.tertiary,highway.tertiary_link,highway.unclassified,highway.residential,"/>
    </edge_removal>

    <junctions>
        <junctions.join value="true"/>
    </junctions>

    <pedestrian>
        <sidewalks.guess value="true"/>
    </pedestrian>

    <formats>
        <osm.sidewalks value="true"/>
        <osm.crossings value="true"/>
    </formats>

    <report>
        <aggregate-warnings value="5"/>
    </report>

</configuration>
-->

<OpenDRIVE>

    <header revMajor="1" revMinor="4" name="" version="1" date="2019-02-18T13:36:12" north="209.3415576931303" south="594.6534494725385" east="209.37500939325187" west="594.6470076286956">
    <geoReference><![CDATA[+proj=tmerc +lat_0=40.62817468487931 +lon_0=-8.6619297665839 +x_0=0 +y_0=0 +k_0=1.0 +ellps=GRS80 +units=m +no_defs]]></geoReference>
    </header>
    
    <road name="Rua de Santiago" length="65.26455654" id="450" junction="-1">
        <link>
            <predecessor elementType="junction" elementId="1"/>
            <successor elementType="junction" elementId="2"/>
        </link>
        <type s="0" type="town"/>
        <planView>
            <geometry s="0.00000000" x="-732904.16441091" y="4535575.35918530" hdg="-0.86982431" length="8.10728074">
                <line/>
            </geometry>
            <geometry s="8.10728074" x="-732898.93553248" y="4535569.16347457" hdg="-0.86982431" length="13.88845658">
                <paramPoly3 aU="0.00000000" bU="10.41630840" cU="10.41540613" dU="-6.94378100" aV="0.00000000" bV="0.00000000" cV="0.24041008" dV="-0.12522294" pRange="normalized"/>
            </geometry>
            <geometry s="21.99573733" x="-732889.89033169" y="4535558.62438978" hdg="-0.85972927" length="3.85315519">
                <paramPoly3 aU="0.00000000" bU="2.88971037" cU="2.89184635" dU="-1.92869077" aV="0.00000000" bV="-0.00000000" cV="-0.04220093" dV="0.06721664" pRange="normalized"/>
            </geometry>
            <geometry s="25.84889252" x="-732887.35683362" y="4535555.72153095" hdg="-0.81914380" length="13.87581177">
                <paramPoly3 aU="0.00000000" bU="10.40678653" cU="10.40629103" dU="-6.93798372" aV="0.00000000" bV="0.00000000" cV="0.22519461" dV="-0.09386228" pRange="normalized"/>
            </geometry>
            <geometry s="39.72470429" x="-732877.78632161" y="4535545.67460223" hdg="-0.80292268" length="2.54883160">
                <paramPoly3 aU="0.00000000" bU="1.91089693" cU="1.91870349" dU="-1.28346303" aV="0.00000000" bV="0.00000000" cV="0.05886867" dV="0.03487602" pRange="normalized"/>
            </geometry>
            <geometry s="42.27353589" x="-732875.95031747" y="4535543.90805403" hdg="-0.68629140" length="13.83245889">
                <paramPoly3 aU="0.00000000" bU="10.37016548" cU="10.42747768" dU="-6.97224873" aV="0.00000000" bV="-0.00000000" cV="-0.52083767" dV="0.72401631" pRange="normalized"/>
            </geometry>
            <geometry s="56.10599478" x="-732865.12622475" y="4535535.30446006" hdg="-0.57707192" length="9.15856176">
                <line/>
            </geometry>
        </planView>
        <elevationProfile>
            <elevation s="0" a="0.00" b="0" c="0" d="0"/>
        </elevationProfile>
        <lateralProfile/>
        <lanes>
            <laneSection s="0">
                <center>
                    <lane id="0" type="none" level="true">
                        <link/>
                        <roadMark sOffset="0" type="solid" weight="standard" color="standard" width="0.13" laneChange="none"/>
                    </lane>
                </center>
                <right>
                    <lane id="-1" type="driving" level="true">
                        <link/>
                        <width sOffset="0" a="6.00" b="0" c="0" d="0"/>
                        <roadMark sOffset="0" type="solid" weight="standard" color="standard" width="0.13" laneChange="none"/>
                        <speed sOffset="0" max="13.89"/>
                    </lane>
                    <lane id="-2" type="sidewalk" level="true">
                        <link/>
                        <width sOffset="0" a="2.80" b="0" c="0" d="0"/>
                        <roadMark sOffset="0" type="solid" weight="standard" color="standard" width="0.13" laneChange="none"/>
                        <speed sOffset="0" max="13.89"/>
                    </lane>
                 </right>
            </laneSection>
        </lanes>
        <objects>
            <object id=":4963498671_c0" type="crosswalk" name="" s="0.00000000" t="0.00000000" hdg="0.86982431">
                <outline id="0" fillType="concrete" outer="true" closed="false" laneType="border">
                    <cornerLocal u="-4.26281342" v="-4.25187273" z="0.00000000" height="0.00000000" id="0"/>
                    <cornerLocal u="4.90777424" v="3.48765709" z="0.00000000" height="0.00000000" id="1"/>
                    <cornerLocal u="4.26281342" v="4.25187273" z="0.00000000" height="0.00000000" id="2"/>
                    <cornerLocal u="-4.90777424" v="-3.48765709" z="0.00000000" height="0.00000000" id="3"/>
                </outline>
            </object>
        </objects>
    </road>
    <road name="Rua de Santiago" length="144.11457655" id="451" junction="-1">
        <link>
            <predecessor elementType="junction" elementId="3"/>
            <successor elementType="junction" elementId="1"/>
        </link>
        <type s="0" type="town"/>
        <planView>
            <geometry s="0.00000000" x="-732999.82495869" y="4535688.43719543" hdg="-0.86878803" length="16.47634467">
                <line/>
            </geometry>
            <geometry s="16.47634467" x="-732989.18531928" y="4535675.85673412" hdg="-0.86878803" length="13.88886162">
                <paramPoly3 aU="0.00000000" bU="10.41664084" cU="10.41664084" dU="-6.94446166" aV="0.00000000" bV="0.00000000" cV="0.04639101" dV="-0.01546375" pRange="normalized"/>
            </geometry>
            <geometry s="30.36520629" x="-732980.19296575" y="4535665.27194049" hdg="-0.86433449" length="43.47859666">
                <line/>
            </geometry>
            <geometry s="73.84380295" x="-732951.96898736" y="4535632.19936255" hdg="-0.86433449" length="13.88880061">
                <paramPoly3 aU="0.00000000" bU="10.41658307" cU="10.41658307" dU="-6.94450017" aV="0.00000000" bV="-0.00000000" cV="-0.08346480" dV="0.02782205" pRange="normalized"/>
            </geometry>
            <geometry s="87.73260355" x="-732942.99553401" y="4535621.59864214" hdg="-0.87234713" length="56.38197300">
                <line/>
            </geometry>
        </planView>
        <elevationProfile>
            <elevation s="0" a="0.00" b="0" c="0" d="0"/>
        </elevationProfile>
        <lateralProfile/>
        <lanes>
            <laneSection s="0">
                <center>
                    <lane id="0" type="none" level="true">
                        <link/>
                        <roadMark sOffset="0" type="solid" weight="standard" color="standard" width="0.13" laneChange="none"/>
                    </lane>
                </center>
                <right>
                    <lane id="-1" type="driving" level="true">
                        <link/>
                        <width sOffset="0" a="6.00" b="0" c="0" d="0"/>
                        <roadMark sOffset="0" type="solid" weight="standard" color="standard" width="0.13" laneChange="none"/>
                        <speed sOffset="0" max="13.89"/>
                    </lane>
                    <lane id="-2" type="sidewalk" level="true">
                        <link/>
                        <width sOffset="0" a="2.80" b="0" c="0" d="0"/>
                        <roadMark sOffset="0" type="solid" weight="standard" color="standard" width="0.13" laneChange="none"/>
                        <speed sOffset="0" max="13.89"/>
                    </lane>
                 </right>
            </laneSection>
        </lanes>
        <objects>
            <object id=":4963498672_c0" type="crosswalk" name="" s="0.00000000" t="0.00000000" hdg="0.86878803">
                <outline id="0" fillType="concrete" outer="true" closed="false" laneType="border">
                    <cornerLocal u="-4.25840498" v="-4.25628794" z="0.00000000" height="0.00000000" id="0"/>
                    <cornerLocal u="4.90415740" v="3.49274108" z="0.00000000" height="0.00000000" id="1"/>
                    <cornerLocal u="4.25840498" v="4.25628794" z="0.00000000" height="0.00000000" id="2"/>
                    <cornerLocal u="-4.90415740" v="-3.49274108" z="0.00000000" height="0.00000000" id="3"/>
                </outline>
            </object>
        </objects>
    </road>
    <road name="Rua Condessa Mumadona Dias" length="68.32059241" id="452" junction="-1">
        <link>
            <predecessor elementType="junction" elementId="4"/>
            <successor elementType="junction" elementId="5"/>
        </link>
        <type s="0" type="town"/>
        <planView>
            <geometry s="0.00000000" x="-732894.65031771" y="4536582.62549030" hdg="2.47757725" length="68.32059241">
                <line/>
            </geometry>
        </planView>
        <elevationProfile>
            <elevation s="0" a="0.00" b="0" c="0" d="0"/>
        </elevationProfile>
        <lateralProfile/>
        <lanes>
            <laneSection s="0">
                <center>
                    <lane id="0" type="none" level="true">
                        <link/>
                        <roadMark sOffset="0" type="solid" weight="standard" color="standard" width="0.13" laneChange="none"/>
                    </lane>
                </center>
                <right>
                    <lane id="-1" type="driving" level="true">
                        <link/>
                        <width sOffset="0" a="6.00" b="0" c="0" d="0"/>
                        <roadMark sOffset="0" type="solid" weight="standard" color="standard" width="0.13" laneChange="none"/>
                        <speed sOffset="0" max="27.78"/>
                    </lane>
                 </right>
            </laneSection>
        </lanes>
        <objects/>
    </road>
    <road name="Rua dos Santos Mártires" length="5.82418627" id="453" junction="-1">
        <link>
            <predecessor elementType="junction" elementId="6"/>
            <successor elementType="junction" elementId="7"/>
        </link>
        <type s="0" type="town"/>
        <planView>
            <geometry s="0.00000000" x="-732867.16385281" y="4536587.93627524" hdg="-2.59156081" length="5.82418627">
                <line/>
            </geometry>
        </planView>
        <elevationProfile>
            <elevation s="0" a="0.00" b="0" c="0" d="0"/>
        </elevationProfile>
        <lateralProfile/>
        <lanes>
            <laneSection s="0">
                <center>
                    <lane id="0" type="none" level="true">
                        <link/>
                        <roadMark sOffset="0" type="solid" weight="standard" color="standard" width="0.13" laneChange="none"/>
                    </lane>
                </center>
                <right>
                    <lane id="-1" type="driving" level="true">
                        <link/>
                        <width sOffset="0" a="6.00" b="0" c="0" d="0"/>
                        <roadMark sOffset="0" type="solid" weight="standard" color="standard" width="0.13" laneChange="none"/>
                        <speed sOffset="0" max="13.89"/>
                    </lane>
                    <lane id="-2" type="sidewalk" level="true">
                        <link/>
                        <width sOffset="0" a="2.80" b="0" c="0" d="0"/>
                        <roadMark sOffset="0" type="solid" weight="standard" color="standard" width="0.13" laneChange="none"/>
                        <speed sOffset="0" max="13.89"/>
                    </lane>
                 </right>
            </laneSection>
        </lanes>
        <objects>
            <object id=":10002075856_c1" type="crosswalk" name="" s="0.00000000" t="0.00000000" hdg="2.59156081">
                <outline id="0" fillType="concrete" outer="true" closed="false" laneType="border">
                    <cornerLocal u="-3.56254017" v="4.85369009" z="0.00000000" height="0.00000000" id="0"/>
                    <cornerLocal u="2.71003229" v="-5.37640447" z="0.00000000" height="0.00000000" id="1"/>
                    <cornerLocal u="3.56254017" v="-4.85369009" z="0.00000000" height="0.00000000" id="2"/>
                    <cornerLocal u="-2.71003229" v="5.37640447" z="0.00000000" height="0.00000000" id="3"/>
                </outline>
            </object>
        </objects>
    </road>
    <road name="Rua dos Santos Mártires" length="139.30037276" id="454" junction="-1">
        <link>
            <predecessor elementType="junction" elementId="8"/>
            <successor elementType="junction" elementId="6"/>
        </link>
        <type s="0" type="town"/>
        <planView>
            <geometry s="0.00000000" x="-732749.55445691" y="4536669.53765645" hdg="-2.52591434" length="1.44910032">
                <line/>
            </geometry>
            <geometry s="1.44910032" x="-732750.73747619" y="4536668.70078303" hdg="-2.52591434" length="13.88983711">
                <paramPoly3 aU="-0.00000000" bU="10.41734575" cU="10.41734575" dU="-6.94510282" aV="0.00000000" bV="-0.00000000" cV="0.11337878" dV="-0.03779404" pRange="normalized"/>
            </geometry>
            <geometry s="15.33893742" x="-732762.03303390" y="4536660.61766712" hdg="-2.51503080" length="94.81757471">
                <line/>
            </geometry>
            <geometry s="110.15651213" x="-732838.83984845" y="4536605.02013380" hdg="-2.51503080" length="13.87381867">
                <paramPoly3 aU="-0.00000000" bU="10.40218559" cU="10.40214063" dU="-6.95513463" aV="0.00000000" bV="0.00000000" cV="-1.12931792" dV="0.37754446" pRange="normalized"/>
            </geometry>
            <geometry s="124.03033080" x="-732850.49917473" y="4536597.50845076" hdg="-2.62349003" length="15.27004196">
                <line/>
            </geometry>
        </planView>
        <elevationProfile>
            <elevation s="0" a="0.00" b="0" c="0" d="0"/>
        </elevationProfile>
        <lateralProfile/>
        <lanes>
            <laneSection s="0">
                <center>
                    <lane id="0" type="none" level="true">
                        <link/>
                        <roadMark sOffset="0" type="solid" weight="standard" color="standard" width="0.13" laneChange="none"/>
                    </lane>
                </center>
                <right>
                    <lane id="-1" type="driving" level="true">
                        <link/>
                        <width sOffset="0" a="6.00" b="0" c="0" d="0"/>
                        <roadMark sOffset="0" type="solid" weight="standard" color="standard" width="0.13" laneChange="none"/>
                        <speed sOffset="0" max="13.89"/>
                    </lane>
                    <lane id="-2" type="sidewalk" level="true">
                        <link/>
                        <width sOffset="0" a="2.80" b="0" c="0" d="0"/>
                        <roadMark sOffset="0" type="solid" weight="standard" color="standard" width="0.13" laneChange="none"/>
                        <speed sOffset="0" max="13.89"/>
                    </lane>
                 </right>
            </laneSection>
        </lanes>
        <objects/>
    </road>
    <road name="Rua dos Santos Mártires" length="7.36111203" id="455" junction="-1">
        <link>
            <predecessor elementType="junction" elementId="9"/>
            <successor elementType="junction" elementId="8"/>
        </link>
        <type s="0" type="town"/>
        <planView>
            <geometry s="0.00000000" x="-732742.14181462" y="4536673.58714808" hdg="-2.64955398" length="7.36111203">
                <line/>
            </geometry>
        </planView>
        <elevationProfile>
            <elevation s="0" a="0.00" b="0" c="0" d="0"/>
        </elevationProfile>
        <lateralProfile/>
        <lanes>
            <laneSection s="0">
                <center>
                    <lane id="0" type="none" level="true">
                        <link/>
                        <roadMark sOffset="0" type="solid" weight="standard" color="standard" width="0.13" laneChange="none"/>
                    </lane>
                </center>
                <right>
                    <lane id="-1" type="driving" level="true">
                        <link/>
                        <width sOffset="0" a="6.00" b="0" c="0" d="0"/>
                        <roadMark sOffset="0" type="solid" weight="standard" color="standard" width="0.13" laneChange="none"/>
                        <speed sOffset="0" max="13.89"/>
                    </lane>
                    <lane id="-2" type="sidewalk" level="true">
                        <link/>
                        <width sOffset="0" a="2.80" b="0" c="0" d="0"/>
                        <roadMark sOffset="0" type="solid" weight="standard" color="standard" width="0.13" laneChange="none"/>
                        <speed sOffset="0" max="13.89"/>
                    </lane>
                 </right>
            </laneSection>
        </lanes>
        <objects/>
    </road>
    <road name="Rua da Pega" length="106.47612983" id="456" junction="-1">
        <link>
            <predecessor elementType="junction" elementId="10"/>
            <successor elementType="junction" elementId="11"/>
        </link>
        <type s="0" type="town"/>
        <planView>
            <geometry s="0.00000000" x="-733073.15356754" y="4536253.79204044" hdg="1.02056342" length="0.19999697">
                <line/>
            </geometry>
            <geometry s="0.19999697" x="-733073.04899197" y="4536253.96251841" hdg="1.02056342" length="6.84798490">
                <paramPoly3 aU="0.00000000" bU="5.13598195" cU="5.13573387" dU="-3.42385015" aV="0.00000000" bV="0.00000000" cV="0.08743344" dV="-0.04857413" pRange="normalized"/>
            </geometry>
            <geometry s="7.04798187" x="-733069.50146420" y="4536259.81997700" hdg="1.02623802" length="99.42814796">
                <line/>
            </geometry>
        </planView>
        <elevationProfile>
            <elevation s="0" a="0.00" b="0" c="0" d="0"/>
        </elevationProfile>
        <lateralProfile/>
        <lanes>
            <laneSection s="0">
                <center>
                    <lane id="0" type="none" level="true">
                        <link/>
                        <roadMark sOffset="0" type="solid" weight="standard" color="standard" width="0.13" laneChange="none"/>
                    </lane>
                </center>
                <right>
                    <lane id="-1" type="driving" level="true">
                        <link/>
                        <width sOffset="0" a="6.00" b="0" c="0" d="0"/>
                        <roadMark sOffset="0" type="solid" weight="standard" color="standard" width="0.13" laneChange="none"/>
                        <speed sOffset="0" max="13.89"/>
                    </lane>
                    <lane id="-2" type="sidewalk" level="true">
                        <link/>
                        <width sOffset="0" a="2.80" b="0" c="0" d="0"/>
                        <roadMark sOffset="0" type="solid" weight="standard" color="standard" width="0.13" laneChange="none"/>
                        <speed sOffset="0" max="13.89"/>
                    </lane>
                 </right>
            </laneSection>
        </lanes>
        <objects/>
    </road>
    <road name="Rua da Pega" length="134.73790380" id="457" junction="-1">
        <link>
            <predecessor elementType="junction" elementId="12"/>
            <successor elementType="junction" elementId="10"/>
        </link>
        <type s="0" type="town"/>
        <planView>
            <geometry s="0.00000000" x="-733146.25441209" y="4536135.87264081" hdg="1.01586623" length="134.73790380">
                <line/>
            </geometry>
        </planView>
        <elevationProfile>
            <elevation s="0" a="0.00" b="0" c="0" d="0"/>
        </elevationProfile>
        <lateralProfile/>
        <lanes>
            <laneSection s="0">
                <center>
                    <lane id="0" type="none" level="true">
                        <link/>
                        <roadMark sOffset="0" type="solid" weight="standard" color="standard" width="0.13" laneChange="none"/>
                    </lane>
                </center>
                <right>
                    <lane id="-1" type="driving" level="true">
                        <link/>
                        <width sOffset="0" a="6.00" b="0" c="0" d="0"/>
                        <roadMark sOffset="0" type="solid" weight="standard" color="standard" width="0.13" laneChange="none"/>
                        <speed sOffset="0" max="13.89"/>
                    </lane>
                    <lane id="-2" type="sidewalk" level="true">
                        <link/>
                        <width sOffset="0" a="2.80" b="0" c="0" d="0"/>
                        <roadMark sOffset="0" type="solid" weight="standard" color="standard" width="0.13" laneChange="none"/>
                        <speed sOffset="0" max="13.89"/>
                    </lane>
                 </right>
            </laneSection>
        </lanes>
        <objects>
            <object id=":3631879520_c0" type="crosswalk" name="" s="0.00000000" t="0.00000000" hdg="-1.01586623">
                <outline id="0" fillType="concrete" outer="true" closed="false" laneType="border">
                    <cornerLocal u="5.36306557" v="-2.73633472" z="0.00000000" height="0.00000000" id="0"/>
                    <cornerLocal u="-4.83618168" v="3.58627199" z="0.00000000" height="0.00000000" id="1"/>
                    <cornerLocal u="-5.36306557" v="2.73633472" z="0.00000000" height="0.00000000" id="2"/>
                    <cornerLocal u="4.83618168" v="-3.58627199" z="0.00000000" height="0.00000000" id="3"/>
                </outline>
            </object>
        </objects>
    </road>
    <road name="Rua da Pega" length="185.82713237" id="458" junction="-1">
        <link>
            <predecessor elementType="junction" elementId="13"/>
            <successor elementType="junction" elementId="12"/>
        </link>
        <type s="0" type="town"/>
        <planView>
            <geometry s="0.00000000" x="-733225.25233198" y="4535963.54780337" hdg="1.16357381" length="104.79595987">
                <line/>
            </geometry>
            <geometry s="104.79595987" x="-733183.74679138" y="4536059.77401240" hdg="1.16357381" length="13.88995843">
                <paramPoly3 aU="0.00000000" bU="10.41746064" cU="10.41746064" dU="-6.94502624" aV="0.00000000" bV="-0.00000000" cV="-0.05727611" dV="0.01909218" pRange="normalized"/>
            </geometry>
            <geometry s="118.68591830" x="-733178.21049115" y="4536072.51293001" hdg="1.15807574" length="43.89515668">
                <line/>
            </geometry>
            <geometry s="162.58107498" x="-733160.60401401" y="4536112.72234113" hdg="1.15807574" length="11.22667924">
                <paramPoly3 aU="0.00000000" bU="8.41312391" cU="8.15879257" dU="-5.46749997" aV="0.00000000" bV="0.00000000" cV="-3.57402354" dV="1.98524803" pRange="normalized"/>
            </geometry>
            <geometry s="173.80775423" x="-733154.69462894" y="4536122.25709030" hdg="1.01587759" length="12.01937815">
                <line/>
            </geometry>
        </planView>
        <elevationProfile>
            <elevation s="0" a="0.00" b="0" c="0" d="0"/>
        </elevationProfile>
        <lateralProfile/>
        <lanes>
            <laneSection s="0">
                <center>
                    <lane id="0" type="none" level="true">
                        <link/>
                        <roadMark sOffset="0" type="solid" weight="standard" color="standard" width="0.13" laneChange="none"/>
                    </lane>
                </center>
                <right>
                    <lane id="-1" type="driving" level="true">
                        <link/>
                        <width sOffset="0" a="6.00" b="0" c="0" d="0"/>
                        <roadMark sOffset="0" type="solid" weight="standard" color="standard" width="0.13" laneChange="none"/>
                        <speed sOffset="0" max="13.89"/>
                    </lane>
                    <lane id="-2" type="sidewalk" level="true">
                        <link/>
                        <width sOffset="0" a="2.80" b="0" c="0" d="0"/>
                        <roadMark sOffset="0" type="solid" weight="standard" color="standard" width="0.13" laneChange="none"/>
                        <speed sOffset="0" max="13.89"/>
                    </lane>
                 </right>
            </laneSection>
        </lanes>
        <objects/>
    </road>
    <road name="Rua da Pega" length="148.35196339" id="459" junction="-1">
        <link>
            <predecessor elementType="junction" elementId="14"/>
            <successor elementType="junction" elementId="13"/>
        </link>
        <type s="0" type="town"/>
        <planView>
            <geometry s="0.00000000" x="-733216.41467167" y="4535818.23744204" hdg="1.94187229" length="5.22591659">
                <line/>
            </geometry>
            <geometry s="5.22591659" x="-733218.30968502" y="4535823.10767083" hdg="1.94187229" length="13.88709797">
                <paramPoly3 aU="0.00000000" bU="10.41475227" cU="10.41475082" dU="-6.94682941" aV="-0.00000000" bV="0.00000000" cV="-0.47850357" dV="0.15958531" pRange="normalized"/>
            </geometry>
            <geometry s="19.11301455" x="-733223.04658558" y="4535836.16110374" hdg="1.89593558" length="27.39507675">
                <line/>
            </geometry>
            <geometry s="46.50809130" x="-733231.79768929" y="4535862.12084976" hdg="1.89593558" length="13.73157348">
                <paramPoly3 aU="0.00000000" bU="10.28695671" cU="9.85270365" dU="-6.61660263" aV="-0.00000000" bV="-0.00000000" cV="-5.15890388" dV="2.86674719" pRange="normalized"/>
            </geometry>
            <geometry s="60.23966478" x="-733233.94544291" y="4535875.66759207" hdg="1.72818449" length="12.96767540">
                <paramPoly3 aU="0.00000000" bU="9.72460716" cU="9.73867808" dU="-6.49714253" aV="-0.00000000" bV="-0.00000000" cV="0.52924702" dV="-0.52714910" pRange="normalized"/>
            </geometry>
            <geometry s="73.20734018" x="-733235.97981754" y="4535888.47314481" hdg="1.67438224" length="13.82329223">
                <paramPoly3 aU="0.00000000" bU="10.36054827" cU="10.43202967" dU="-6.99622837" aV="-0.00000000" bV="0.00000000" cV="-0.49595821" dV="-0.20340770" pRange="normalized"/>
            </geometry>
            <geometry s="87.03063241" x="-733236.71075356" y="4535902.26785781" hdg="1.51912072" length="16.24650111">
                <line/>
            </geometry>
            <geometry s="103.27713351" x="-733235.87157929" y="4535918.49267167" hdg="1.51912072" length="13.82994602">
                <paramPoly3 aU="0.00000000" bU="10.36074327" cU="10.36012820" dU="-6.98181045" aV="0.00000000" bV="-0.00000000" cV="-2.17185182" dV="0.73179633" pRange="normalized"/>
            </geometry>
            <geometry s="117.10707953" x="-733233.72378767" y="4535932.13900996" hdg="1.31025398" length="31.24488386">
                <line/>
            </geometry>
        </planView>
        <elevationProfile>
            <elevation s="0" a="0.00" b="0" c="0" d="0"/>
        </elevationProfile>
        <lateralProfile/>
        <lanes>
            <laneSection s="0">
                <center>
                    <lane id="0" type="none" level="true">
                        <link/>
                        <roadMark sOffset="0" type="solid" weight="standard" color="standard" width="0.13" laneChange="none"/>
                    </lane>
                </center>
                <right>
                    <lane id="-1" type="driving" level="true">
                        <link/>
                        <width sOffset="0" a="6.00" b="0" c="0" d="0"/>
                        <roadMark sOffset="0" type="solid" weight="standard" color="standard" width="0.13" laneChange="none"/>
                        <speed sOffset="0" max="13.89"/>
                    </lane>
                    <lane id="-2" type="sidewalk" level="true">
                        <link/>
                        <width sOffset="0" a="2.80" b="0" c="0" d="0"/>