<?xml version="1.0" encoding="UTF-8"?>

<!-- generated on 2024-03-18 14:42:36 by 
<configuration xmlns:xsi="http://www.w3.org/2001/XMLSchema-instance" xsi:noNamespaceSchemaLocation="http://sumo.dlr.de/xsd/Configuration.xsd">

    <input>
        <osm-files value="TRUE"/>
    </input>

    <output>
        <opendrive-output value="TRUE"/>
    </output>

    <projection>
        <proj value="+proj=tmerc"/>
    </projection>

    <processing>
        <geometry.remove value="true"/>
        <roundabouts.guess value="true"/>
        <edges.join value="true"/>
    </processing>

    <building_defaults>
        <default.lanewidth value="3.350000"/>
        <default.sidewalk-width value="2.800000"/>
    </building_defaults>

    <tls_building>
        <tls.group-signals value="true"/>
    </tls_building>

    <ramp_guessing>
        <ramps.guess value="true"/>
    </ramp_guessing>

    <edge_removal>
        <keep-edges.by-type value="highway.motorway,highway.motorway_link,highway.trunk,highway.trunk_link,highway.primary,highway.primary_link,highway.secondary,highway.secondary_link,highway.tertiary,highway.tertiary_link,highway.unclassified,highway.residential,"/>
    </edge_removal>

    <junctions>
        <junctions.join value="true"/>
    </junctions>

    <pedestrian>
        <sidewalks.guess value="true"/>
    </pedestrian>

    <formats>
        <osm.sidewalks value="true"/>
        <osm.crossings value="true"/>
    </formats>

    <report>
        <aggregate-warnings value="5"/>
    </report>

</configuration>
-->

<OpenDRIVE>
    <header revMajor="1" revMinor="4" name="" version="1" date="2019-02-18T13:36:12" north="209.3396756038707" south="662.1422268550822" east="209.37692383790625" west="662.1356523217329">
    <geoReference><![CDATA[+proj=tmerc +lat_0=40.62756168234787 +lon_0=-8.66192974395493 +x_0=0 +y_0=0 +k_0=1.0 +ellps=GRS80 +units=m +no_defs]]></geoReference>
    </header>
    <road name="Rua de Santiago" length="65.87373923" id="510" junction="-1">
        <link>
            <predecessor elementType="junction" elementId="1"/>
            <successor elementType="junction" elementId="2"/>
        </link>
        <type s="0" type="town"/>
        <planView>
            <geometry s="0.00000000" x="361.89638379" y="155.00278802" hdg="-0.76844310" length="7.95365453">
                <line/>
            </geometry>
            <geometry s="7.95365453" x="367.61501057" y="149.47486542" hdg="-0.76844310" length="13.88845654">
                <paramPoly3 aU="0.00000000" bU="10.41630858" cU="10.41540065" dU="-6.94377522" aV="0.00000000" bV="0.00000000" cV="0.24095724" dV="-0.12579970" pRange="normalized"/>
            </geometry>
            <geometry s="21.84211107" x="377.68038278" y="139.90531712" hdg="-0.75840911" length="3.69478312">
                <paramPoly3 aU="0.00000000" bU="2.77093525" cU="2.77301746" dU="-1.84945162" aV="0.00000000" bV="0.00000000" cV="-0.04077192" dV="0.06496924" pRange="normalized"/>
            </geometry>
            <geometry s="25.53689420" x="380.37897810" y="137.38192514" hdg="-0.71748592" length="13.87582467">
                <paramPoly3 aU="0.00000000" bU="10.40680166" cU="10.40632288" dU="-6.93796994" aV="0.00000000" bV="0.00000000" cV="0.21871692" dV="-0.09174538" pRange="normalized"/>
            </geometry>
            <geometry s="39.41271887" x="390.91685015" y="128.35478330" hdg="-0.70189955" length="2.40916884">
                <paramPoly3 aU="0.00000000" bU="1.80618033" cU="1.81365236" dU="-1.21324843" aV="0.00000000" bV="0.00000000" cV="0.05627044" dV="0.03302797" pRange="normalized"/>
            </geometry>
            <geometry s="41.82188770" x="392.81221625" y="126.86911533" hdg="-0.58446277" length="13.83266279">
                <paramPoly3 aU="0.00000000" bU="10.37035911" cU="10.42707049" dU="-6.97163517" aV="0.00000000" bV="-0.00000000" cV="-0.54111821" dV="0.73440721" pRange="normalized"/>
            </geometry>
            <geometry s="55.65455049" x="404.44969554" y="119.40191854" hdg="-0.47615602" length="10.21918873">
                <line/>
            </geometry>
        </planView>
        <elevationProfile>
            <elevation s="0" a="0.00" b="0" c="0" d="0"/>
        </elevationProfile>
        <lateralProfile/>
        <lanes>
            <laneSection s="0">
                <center>
                    <lane id="0" type="none" level="true">
                        <link/>
                        <roadMark sOffset="0" type="solid" weight="standard" color="standard" width="0.13" laneChange="none"/>
                    </lane>
                </center>
                <right>
                    <lane id="-1" type="driving" level="true">
                        <link/>
                        <width sOffset="0" a="3.35" b="0" c="0" d="0"/>
                        <roadMark sOffset="0" type="solid" weight="standard" color="standard" width="0.13" laneChange="none"/>
                        <speed sOffset="0" max="13.89"/>
                    </lane>
                    <lane id="-2" type="sidewalk" level="true">
                        <link/>
                        <width sOffset="0" a="2.80" b="0" c="0" d="0"/>
                        <roadMark sOffset="0" type="solid" weight="standard" color="standard" width="0.13" laneChange="none"/>
                        <speed sOffset="0" max="13.89"/>
                    </lane>
                 </right>
            </laneSection>
        </lanes>
        <objects>
            <object id=":4963498671_c0" type="crosswalk" name="" s="0.00000000" t="0.00000000" hdg="0.76844310">
                <outline id="0" fillType="concrete" outer="true" closed="false" laneType="border">
                    <cornerLocal u="-1.96880909" v="-2.75613693" z="0.00000000" height="0.00000000" id="0"/>
                    <cornerLocal u="2.68780269" v="2.06112025" z="0.00000000" height="0.00000000" id="1"/>
                    <cornerLocal u="1.96880909" v="2.75613693" z="0.00000000" height="0.00000000" id="2"/>
                    <cornerLocal u="-2.68780269" v="-2.06112025" z="0.00000000" height="0.00000000" id="3"/>
                </outline>
            </object>
        </objects>
    </road>
    <road name="Rua de Santiago" length="142.78088662" id="511" junction="-1">
        <link>
            <predecessor elementType="junction" elementId="3"/>
            <successor elementType="junction" elementId="1"/>
        </link>
        <type s="0" type="town"/>
        <planView>
            <geometry s="0.00000000" x="256.24258306" y="256.89271839" hdg="-0.76740501" length="16.24740920">
                <line/>
            </geometry>
            <geometry s="16.24740920" x="267.93608248" y="245.61263076" hdg="-0.76740501" length="13.88886163">
                <paramPoly3 aU="0.00000000" bU="10.41664086" cU="10.41664086" dU="-6.94446165" aV="0.00000000" bV="0.00000000" cV="0.04637621" dV="-0.01545881" pRange="normalized"/>
            </geometry>
            <geometry s="30.13627083" x="277.95353562" y="235.99229235" hdg="-0.76295289" length="42.96325615">
                <line/>
            </geometry>
            <geometry s="73.09952698" x="309.00731449" y="206.30215598" hdg="-0.76295289" length="13.88880062">
                <paramPoly3 aU="0.00000000" bU="10.41658308" cU="10.41658308" dU="-6.94450017" aV="0.00000000" bV="-0.00000000" cV="-0.08345905" dV="0.02782013" pRange="normalized"/>
            </geometry>
            <geometry s="86.98832760" x="319.00757224" y="196.66405535" hdg="-0.77096499" length="55.79255902">
                <line/>
            </geometry>
        </planView>
        <elevationProfile>
            <elevation s="0" a="0.00" b="0" c="0" d="0"/>
        </elevationProfile>
        <lateralProfile/>
        <lanes>
            <laneSection s="0">
                <center>
                    <lane id="0" type="none" level="true">
                        <link/>
                        <roadMark sOffset="0" type="solid" weight="standard" color="standard" width="0.13" laneChange="none"/>
                    </lane>
                </center>
                <right>
                    <lane id="-1" type="driving" level="true">
                        <link/>
                        <width sOffset="0" a="3.35" b="0" c="0" d="0"/>
                        <roadMark sOffset="0" type="solid" weight="standard" color="standard" width="0.13" laneChange="none"/>
                        <speed sOffset="0" max="13.89"/>
                    </lane>
                    <lane id="-2" type="sidewalk" level="true">
                        <link/>
                        <width sOffset="0" a="2.80" b="0" c="0" d="0"/>
                        <roadMark sOffset="0" type="solid" weight="standard" color="standard" width="0.13" laneChange="none"/>
                        <speed sOffset="0" max="13.89"/>
                    </lane>
                 </right>
            </laneSection>
        </lanes>
        <objects>
            <object id=":4963498672_c0" type="crosswalk" name="" s="0.00000000" t="0.00000000" hdg="0.76740501">
                <outline id="0" fillType="concrete" outer="true" closed="false" laneType="border">
                    <cornerLocal u="-1.96594691" v="-2.75817925" z="0.00000000" height="0.00000000" id="0"/>
                    <cornerLocal u="2.68566162" v="2.06390932" z="0.00000000" height="0.00000000" id="1"/>
                    <cornerLocal u="1.96594691" v="2.75817925" z="0.00000000" height="0.00000000" id="2"/>
                    <cornerLocal u="-2.68566162" v="-2.06390932" z="0.00000000" height="0.00000000" id="3"/>
                </outline>
            </object>
        </objects>
    </road>
    <road name="Estrada de Santiago" length="109.90282592" id="512" junction="-1">
        <link>
            <predecessor elementType="junction" elementId="4"/>
            <successor elementType="junction" elementId="5"/>
        </link>
        <type s="0" type="town"/>
        <planView>
            <geometry s="0.00000000" x="88.34147657" y="-0.00000000" hdg="1.12663873" length="29.18744292">
                <line/>
            </geometry>
            <geometry s="29.18744292" x="100.88324393" y="26.35547184" hdg="1.12663873" length="13.88888885">
                <paramPoly3 aU="0.00000000" bU="10.41666663" cU="10.41666663" dU="-6.94444447" aV="0.00000000" bV="-0.00000000" cV="0.00185049" dV="-0.00061683" pRange="normalized"/>
            </geometry>
            <geometry s="43.07633176" x="106.85014890" y="38.89729300" hdg="1.12681638" length="46.10977149">
                <line/>
            </geometry>
            <geometry s="89.18610325" x="126.65599948" y="80.53668912" hdg="1.12681638" length="13.82621060">
                <paramPoly3 aU="0.00000000" bU="10.35743470" cU="10.35676491" dU="-6.98281356" aV="0.00000000" bV="0.00000000" cV="-2.21847818" dV="0.74785509" pRange="normalized"/>
            </geometry>
            <geometry s="103.01231386" x="133.88218229" y="92.30512050" hdg="0.91343097" length="6.89051207">
                <line/>
            </geometry>
        </planView>
        <elevationProfile>
            <elevation s="0" a="0.00" b="0" c="0" d="0"/>
        </elevationProfile>
        <lateralProfile/>
        <lanes>
            <laneSection s="0">
                <center>
                    <lane id="0" type="none" level="true">
                        <link/>
                        <roadMark sOffset="0" type="solid" weight="standard" color="standard" width="0.13" laneChange="none"/>
                    </lane>
                </center>
                <right>
                    <lane id="-1" type="driving" level="true">
                        <link/>
                        <width sOffset="0" a="3.35" b="0" c="0" d="0"/>
                        <roadMark sOffset="0" type="solid" weight="standard" color="standard" width="0.13" laneChange="none"/>
                        <speed sOffset="0" max="13.89"/>
                    </lane>
                    <lane id="-2" type="sidewalk" level="true">
                        <link/>
                        <width sOffset="0" a="2.80" b="0" c="0" d="0"/>
                        <roadMark sOffset="0" type="solid" weight="standard" color="standard" width="0.13" laneChange="none"/>
                        <speed sOffset="0" max="13.89"/>
                    </lane>
                 </right>
            </laneSection>
        </lanes>
        <objects/>
    </road>
    <road name="Rua Condessa Mumadona Dias" length="199.71018990" id="513" junction="-1">
        <link>
            <predecessor elementType="junction" elementId="6"/>
            <successor elementType="junction" elementId="7"/>
        </link>
        <type s="0" type="town"/>
        <planView>
            <geometry s="0.00000000" x="270.29402051" y="1148.07936838" hdg="2.57873417" length="65.13386128">
                <line/>
            </geometry>
            <geometry s="65.13386128" x="215.20814752" y="1182.83518059" hdg="2.57873417" length="21.57944502">
                <paramPoly3 aU="0.00000000" bU="16.17357570" cU="16.32266270" dU="-10.93331523" aV="-0.00000000" bV="-0.00000000" cV="1.38494184" dV="-1.66698043" pRange="normalized"/>
            </geometry>
            <geometry s="86.71330630" x="197.12216361" y="1194.57981287" hdg="2.44034828" length="10.72497838">
                <paramPoly3 aU="0.00000000" bU="7.98715280" cU="8.02923583" dU="-5.71353350" aV="-0.00000000" bV="-0.00000000" cV="-4.07105937" dV="1.37591260" pRange="normalized"/>
            </geometry>
            <geometry s="97.43828468" x="190.98919568" y="1203.28609476" hdg="1.91373918" length="11.90877188">
                <paramPoly3 aU="0.00000000" bU="8.90324290" cU="8.35161991" dU="-5.73063617" aV="-0.00000000" bV="-0.00000000" cV="-5.63572892" dV="2.78746337" pRange="normalized"/>
            </geometry>
            <geometry s="109.34705656" x="189.79646757" y="1215.09701411" hdg="1.58088436" length="8.37929450">
                <paramPoly3 aU="0.00000000" bU="6.27544768" cU="6.24050997" dU="-4.21784621" aV="-0.00000000" bV="0.00000000" cV="-1.75922607" dV="0.68570554" pRange="normalized"/>
            </geometry>
            <geometry s="117.72635106" x="190.78622330" y="1223.40553283" hdg="1.34586116" length="16.13145569">
                <paramPoly3 aU="0.00000000" bU="12.09709309" cU="12.04224808" dU="-8.03436501" aV="0.00000000" bV="-0.00000000" cV="-1.99445666" dV="1.10612077" pRange="normalized"/>
            </geometry>
            <geometry s="133.85780675" x="195.24428548" y="1238.90666438" hdg="1.29040198" length="5.54348754">
                <paramPoly3 aU="0.00000000" bU="4.15761534" cU="4.15760648" dU="-2.77173767" aV="0.00000000" bV="0.00000000" cV="-0.01791251" dV="0.01217162" pRange="normalized"/>
            </geometry>
            <geometry s="139.40129429" x="196.78387611" y="1244.23206673" hdg="1.29056790" length="5.71211319">
                <paramPoly3 aU="0.00000000" bU="4.28408467" cU="4.28407387" dU="-2.85604954" aV="0.00000000" bV="-0.00000000" cV="0.01727230" dV="-0.01061164" pRange="normalized"/>
            </geometry>
            <geometry s="145.11340748" x="198.35730278" y="1249.72320160" hdg="1.29120041" length="6.24263078">
                <paramPoly3 aU="0.00000000" bU="4.68197304" cU="4.68197134" dU="-3.12131441" aV="0.00000000" bV="-0.00000000" cV="-0.00690796" dV="0.00386022" pRange="normalized"/>
            </geometry>
            <geometry s="151.35603827" x="200.08299381" y="1255.72257064" hdg="1.29072299" length="6.51850900">
                <paramPoly3 aU="0.00000000" bU="4.88888173" cU="4.88888191" dU="-3.25925467" aV="0.00000000" bV="0.00000000" cV="-0.00112276" dV="0.00119014" pRange="normalized"/>
            </geometry>
            <geometry s="157.87454726" x="201.88481528" y="1261.98710563" hdg="1.29099399" length="8.18439920">
                <paramPoly3 aU="0.00000000" bU="6.13829934" cU="6.13829902" dU="-4.09219942" aV="0.00000000" bV="-0.00000000" cV="0.00669227" dV="-0.00499310" pRange="normalized"/>
            </geometry>
            <geometry s="166.05894646" x="204.14343227" y="1269.85368293" hdg="1.29073419" length="9.19829152">
                <paramPoly3 aU="0.00000000" bU="6.89871856" cU="6.89871618" dU="-4.59914412" aV="0.00000000" bV="0.00000000" cV="-0.01177579" dV="0.00795027" pRange="normalized"/>
            </geometry>
            <geometry s="175.25723798" x="206.68965764" y="1278.69253474" hdg="1.29077756" length="9.93162907">
                <paramPoly3 aU="0.00000000" bU="7.44872162" cU="7.44871937" dU="-4.96581306" aV="0.00000000" bV="0.00000000" cV="0.01523318" dV="-0.01100869" pRange="normalized"/>
            </geometry>
            <geometry s="185.18886705" x="209.43043829" y="1288.23849580" hdg="1.29043392" length="14.52132285">
                <line/>
            </geometry>
        </planView>
        <elevationProfile>
            <elevation s="0" a="0.00" b="0" c="0" d="0"/>
        </elevationProfile>
        <lateralProfile/>
        <lanes>
            <laneSection s="0">
                <center>
                    <lane id="0" type="none" level="true">
                        <link/>
                        <roadMark sOffset="0" type="solid" weight="standard" color="standard" width="0.13" laneChange="none"/>
                    </lane>
                </center>
                <right>
                    <lane id="-1" type="driving" level="true">
                        <link/>
                        <width sOffset="0" a="3.35" b="0" c="0" d="0"/>
                        <roadMark sOffset="0" type="solid" weight="standard" color="standard" width="0.13" laneChange="none"/>
                        <speed sOffset="0" max="27.78"/>
                    </lane>
                 </right>
            </laneSection>
        </lanes>
        <objects/>
    </road>
    <road name="Rua Doutor Querubim Guimarães" length="22.41859715" id="514" junction="-1">
        <link>
            <predecessor elementType="junction" elementId="8"/>
            <successor elementType="junction" elementId="9"/>
        </link>
        <type s="0" type="town"/>
        <planView>
            <geometry s="0.00000000" x="295.38993977" y="1215.00545344" hdg="0.84176961" length="22.41859715">
                <line/>
            </geometry>
        </planView>
        <elevationProfile>
            <elevation s="0" a="0.00" b="0" c="0" d="0"/>
        </elevationProfile>
        <lateralProfile/>
        <lanes>
            <laneSection s="0">
                <center>
                    <lane id="0" type="none" level="true">
                        <link/>
                        <roadMark sOffset="0" type="solid" weight="standard" color="standard" width="0.13" laneChange="none"/>
                    </lane>
                </center>
                <right>
                    <lane id="-1" type="driving" level="true">
                        <link/>
                        <width sOffset="0" a="3.35" b="0" c="0" d="0"/>
                        <roadMark sOffset="0" type="solid" weight="standard" color="standard" width="0.13" laneChange="none"/>
                        <speed sOffset="0" max="13.89"/>
                    </lane>
                    <lane id="-2" type="sidewalk" level="true">
                        <link/>
                        <width sOffset="0" a="2.80" b="0" c="0" d="0"/>
                        <roadMark sOffset="0" type="solid" weight="standard" color="standard" width="0.13" laneChange="none"/>
                        <speed sOffset="0" max="13.89"/>
                    </lane>
                 </right>
            </laneSection>
        </lanes>
        <objects/>
    </road>
    <road name="Rua dos Santos Mártires" length="3.49907806" id="515" junction="-1">
        <link>
            <predecessor elementType="junction" elementId="10"/>
            <successor elementType="junction" elementId="11"/>
        </link>
        <type s="0" type="town"/>
        <planView>
            <geometry s="0.00000000" x="299.16440236" y="1154.56627124" hdg="-2.49512730" length="3.49907806">
                <line/>
            </geometry>
        </planView>
        <elevationProfile>
            <elevation s="0" a="0.00" b="0" c="0" d="0"/>
        </elevationProfile>
        <lateralProfile/>
        <lanes>
            <laneSection s="0">
                <center>
                    <lane id="0" type="none" level="true">
                        <link/>
                        <roadMark sOffset="0" type="solid" weight="standard" color="standard" width="0.13" laneChange="none"/>
                    </lane>
                </center>
                <right>
                    <lane id="-1" type="driving" level="true">
                        <link/>
                        <width sOffset="0" a="3.35" b="0" c="0" d="0"/>
                        <roadMark sOffset="0" type="solid" weight="standard" color="standard" width="0.13" laneChange="none"/>
                        <speed sOffset="0" max="13.89"/>
                    </lane>
                    <lane id="-2" type="sidewalk" level="true">
                        <link/>
                        <width sOffset="0" a="2.80" b="0" c="0" d="0"/>
                        <roadMark sOffset="0" type="solid" weight="standard" color="standard" width="0.13" laneChange="none"/>
                        <speed sOffset="0" max="13.89"/>
                    </lane>
                 </right>
            </laneSection>
        </lanes>
        <objects>
            <object id=":10002075856_c1" type="crosswalk" name="" s="0.00000000" t="0.00000000" hdg="2.49512730">
                <outline id="0" fillType="concrete" outer="true" closed="false" laneType="border">
                    <cornerLocal u="-2.41704430" v="2.37284573" z="0.00000000" height="0.00000000" id="0"/>
                    <cornerLocal u="1.61882636" v="-2.97521448" z="0.00000000" height="0.00000000" id="1"/>
                    <cornerLocal u="2.41704430" v="-2.37284573" z="0.00000000" height="0.00000000" id="2"/>
                    <cornerLocal u="-1.61882636" v="2.97521448" z="0.00000000" height="0.00000000" id="3"/>
                </outline>
            </object>
        </objects>
    </road>
    <road name="Rua dos Santos Mártires" length="138.23290842" id="516" junction="-1">
        <link>
            <predecessor elementType="junction" elementId="12"/>
            <successor elementType="junction" elementId="10"/>
        </link>
        <type s="0" type="town"/>
        <planView>
            <geometry s="0.00000000" x="407.56242746" y="1246.41692557" hdg="-2.42954854" length="1.53575021">
                <line/>
            </geometry>
            <geometry s="1.53575021" x="406.39982175" y="1245.41349313" hdg="-2.42954854" length="13.88983734">
                <paramPoly3 aU="-0.00000000" bU="10.41734598" cU="10.41734597" dU="-6.94510267" aV="0.00000000" bV="0.00000000" cV="0.11329608" dV="-0.03776648" pRange="normalized"/>
            </geometry>
            <geometry s="15.42558756" x="395.93436528" y="1236.28109935" hdg="-2.41867293" length="93.86312173">
                <line/>
            </geometry>
            <geometry s="109.28870928" x="325.54854022" y="1174.18342426" hdg="-2.41867293" length="13.87385585">
                <paramPoly3 aU="-0.00000000" bU="10.40222076" cU="10.40217601" dU="-6.95511153" aV="0.00000000" bV="0.00000000" cV="-1.12802148" dV="0.37710852" pRange="normalized"/>
            </geometry>
            <geometry s="123.16256513" x="314.66648880" y="1165.58414936" hdg="-2.52700753" length="15.07034329">
                <line/>
            </geometry>
        </planView>
        <elevationProfile>
            <elevation s="0" a="0.00" b="0" c="0" d="0"/>
        </elevationProfile>
        <lateralProfile/>
        <lanes>
            <laneSection s="0">
                <center>
                    <lane id="0" type="none" level="true">
                        <link/>
                        <roadMark sOffset="0" type="solid" weight="standard" color="standard" width="0.13" laneChange="none"/>
                    </lane>
                </center>
                <right>
                    <lane id="-1" type="driving" level="true">
                        <link/>
                        <width sOffset="0" a="3.35" b="0" c="0" d="0"/>
                        <roadMark sOffset="0" type="solid" weight="standard" color="standard" width="0.13" laneChange="none"/>
                        <speed sOffset="0" max="13.89"/>
                    </lane>
                    <lane id="-2" type="sidewalk" level="true">
                        <link/>
                        <width sOffset="0" a="2.80" b="0" c="0" d="0"/>
                        <roadMark sOffset="0" type="solid" weight="standard" color="standard" width="0.13" laneChange="none"/>
                        <speed sOffset="0" max="13.89"/>
                    </lane>
                 </right>
            </laneSection>
        </lanes>
        <objects/>
    </road>
    <road name="Rua dos Santos Mártires" length="7.46129160" id="517" junction="-1">
        <link>
            <predecessor elementType="junction" elementId="13"/>
            <successor elementType="junction" elementId="12"/>
        </link>
        <type s="0" type="town"/>
        <planView>
            <geometry s="0.00000000" x="414.37223844" y="1251.01868559" hdg="-2.55302302" length="7.46129160">
                <line/>
            </geometry>
        </planView>
        <elevationProfile>
            <elevation s="0" a="0.00" b="0" c="0" d="0"/>
        </elevationProfile>
        <lateralProfile/>
        <lanes>
            <laneSection s="0">
                <center>
                    <lane id="0" type="none" level="true">
                        <link/>
                        <roadMark sOffset="0" type="solid" weight="standard" color="standard" width="0.13" laneChange="none"/>
                    </lane>
                </center>
                <right>
                    <lane id="-1" type="driving" level="true">
                        <link/>
                        <width sOffset="0" a="3.35" b="0" c="0" d="0"/>
                        <roadMark sOffset="0" type="solid" weight="standard" color="standard" width="0.13" laneChange="none"/>
                        <speed sOffset="0" max="13.89"/>
                    </lane>
                    <lane id="-2" type="sidewalk" level="true">
                        <link/>
                        <width sOffset="0" a="2.80" b="0" c="0" d="0"/>
                        <roadMark sOffset="0" type="solid" weight="standard" color="standard" width="0.13" laneChange="none"/>
                        <speed sOffset="0" max="13.89"/>
                    </lane>
                 </right>
            </laneSection>
        </lanes>
        <objects/>
    </road>
    <road name="Rua da Pega" length="105.31787371" id="518" junction="-1">
        <link>
            <predecessor elementType="junction" elementId="14"/>
            <successor elementType="junction" elementId="15"/>
        </link>
        <type s="0" type="town"/>
        <planView>
            <geometry s="0.00000000" x="128.30803587" y="805.82408825" hdg="1.12312055" length="105.31787371">
                <line/>
            </geometry>
        </planView>
        <elevationProfile>
            <elevation s="0" a="0.00" b="0" c="0" d="0"/>
        </elevationProfile>
        <lateralProfile/>
        <lanes>
            <laneSection s="0">
                <center>
                    <lane id="0" type="none" level="true">
                        <link/>
                        <roadMark sOffset="0" type="solid" weight="standard" color="standard" width="0.13" laneChange="none"/>
                    </lane>
                </center>
                <right>
                    <lane id="-1" type="driving" level="true">
                        <link/>
                        <width sOffset="0" a="3.35" b="0" c="0" d="0"/>
                        <roadMark sOffset="0" type="solid" weight="standard" color="standard" width="0.13" laneChange="none"/>
                        <speed sOffset="0" max="13.89"/>
                    </lane>
                    <lane id="-2" type="sidewalk" level="true">
                        <link/>
                        <width sOffset="0" a="2.80" b="0" c="0" d="0"/>
                        <roadMark sOffset="0" type="solid" weight="standard" color="standard" width="0.13" laneChange="none"/>
                        <speed sOffset="0" max="13.89"/>
                    </lane>
                 </right>
            </laneSection>
        </lanes>
        <objects/>
    </road>
    <road name="Rua da Pega" length="133.26422738" id="519" junction="-1">
        <link>
            <predecessor elementType="junction" elementId="16"/>
            <successor elementType="junction" elementId="14"/>
        </link>
        <type s="0" type="town"/>
        <planView>
            <geometry s="0.00000000" x="67.61358297" y="682.72739313" hdg="1.11272366" length="133.26422738">
                <line/>
            </geometry>
        </planView>
        <elevationProfile>
            <elevation s="0" a="0.00" b="0" c="0" d="0"/>
        </elevationProfile>
        <lateralProfile/>
        <lanes>
            <laneSection s="0">
                <center>
                    <lane id="0" type="none" level="true">
                        <link/>
                        <roadMark sOffset="0" type="solid" weight="standard" color="standard" width="0.13" laneChange="none"/>
                    </lane>
                </center>
                <right>
                    <lane id="-1" type="driving" level="true">
                        <link/>
                        <width sOffset="0" a="3.35" b="0" c="0" d="0"/>